networks/new/dss/CKT_4799_01085.dss
! OpenDSS script generated from multiconductor network
Clear

New Circuit.mc_network basekv=12.0 pu=1.030000 angle=0.00 frequency=60.0 phases=3 Mvasc3=1.01823e+11 Mvasc1=3.39411e+10
~ bus1=-88888814689353.1.2.3

! Line codes
New LineCode.1000_JCN_3PH_12KV_3 nphases=3 units=km Rmatrix=[ 0.000746 | 0 0.000746 | 0 0 0.000746 ] Xmatrix=[ 0.001129 | 0 0.001129 | 0 0 0.001129 ] Cmatrix=[ 0 | 0 0 | 0 0 0 ]
New LineCode.1/0_CLP_2PH_12KV_2 nphases=2 units=km Rmatrix=[ 0.1507 | 0 0.1507 ] Xmatrix=[ 0.046061 | 0 0.046061 ] Cmatrix=[ 0 | 0 0 ]
New LineCode.1/0_CLP_1PH_12KV_1 nphases=1 units=km Rmatrix=[ 0.076938 ] Xmatrix=[ 0.023516 ] Cmatrix=[ 0 ]
New LineCode.350_CLP_1PH_12KV_1 nphases=1 units=km Rmatrix=[ 0.014487 ] Xmatrix=[ 0.011007 ] Cmatrix=[ 0 ]
New LineCode.2_JCN_1PH_12KV_1 nphases=1 units=km Rmatrix=[ 0.139199 ] Xmatrix=[ 0.029341 ] Cmatrix=[ 0 ]
New LineCode.1/0_CLP_3PH_12KV_3 nphases=3 units=km Rmatrix=[ 0.001789 | 0 0.001789 | 0 0 0.001789 ] Xmatrix=[ 0.000547 | 0 0.000547 | 0 0 0.000547 ] Cmatrix=[ 0 | 0 0 | 0 0 0 ]
New LineCode.2_CLP_1PH_12KV_1 nphases=1 units=km Rmatrix=[ 0.137086 ] Xmatrix=[ 0.028895 ] Cmatrix=[ 0 ]
New LineCode.1/0_JCN_2PH_12KV_2 nphases=2 units=km Rmatrix=[ 0.001008 | 0 0.001008 ] Xmatrix=[ 0.000308 | 0 0.000308 ] Cmatrix=[ 0 | 0 0 ]
New LineCode.350_CLP_2PH_12KV_2 nphases=2 units=km Rmatrix=[ 0.000964 | 0 0.000964 ] Xmatrix=[ 0.000732 | 0 0.000732 ] Cmatrix=[ 0 | 0 0 ]
New LineCode.1/0_JCN_3PH_12KV_3 nphases=3 units=km Rmatrix=[ 0.104935 | 0 0.104935 | 0 0 0.104935 ] Xmatrix=[ 0.032073 | 0 0.032073 | 0 0 0.032073 ] Cmatrix=[ 0 | 0 0 | 0 0 0 ]
New LineCode.750_CLP_3PH_12KV_3 nphases=3 units=km Rmatrix=[ 0.000516 | 0 0.000516 | 0 0 0.000516 ] Xmatrix=[ 0.000634 | 0 0.000634 | 0 0 0.000634 ] Cmatrix=[ 0 | 0 0 | 0 0 0 ]
New LineCode.750_CLP_2PH_12KV_2 nphases=2 units=km Rmatrix=[ 8.5e-05 | 0 8.5e-05 ] Xmatrix=[ 0.000105 | 0 0.000105 ] Cmatrix=[ 0 | 0 0 ]
New LineCode.350_CLP_3PH_12KV_3 nphases=3 units=km Rmatrix=[ 0.03392 | 0 0.03392 | 0 0 0.03392 ] Xmatrix=[ 0.025772 | 0 0.025772 | 0 0 0.025772 ] Cmatrix=[ 0 | 0 0 | 0 0 0 ]
New LineCode.2_CLP_3PH_12KV_3 nphases=3 units=km Rmatrix=[ 0.011614 | 0 0.011614 | 0 0 0.011614 ] Xmatrix=[ 0.002448 | 0 0.002448 | 0 0 0.002448 ] Cmatrix=[ 0 | 0 0 | 0 0 0 ]

! Lines
New Line.GS6028-1$01085 phases=3 Bus1=-88888814689353.1.2.3 Bus2=161559177.1.2.3 LineCode=1000_JCN_3PH_12KV_3 Length=0.100334 units=km
New Line.ND166677255$ND42808748 phases=2 Bus1=166677255.1.2 Bus2=42808748.1.2 LineCode=1/0_CLP_2PH_12KV_2 Length=0.112522 units=km
New Line.B5407065-2$B5407066-2 phases=1 Bus1=58758112.3 Bus2=58758040.3 LineCode=1/0_CLP_1PH_12KV_1 Length=0.182671 units=km
New Line.89685707$P5447282-2 phases=1 Bus1=89685710.3 Bus2=58785320.3 LineCode=1/0_CLP_1PH_12KV_1 Length=0.001751 units=km
New Line.P5447285-2$58785896 phases=1 Bus1=58785899.3 Bus2=58785931.3 LineCode=1/0_CLP_1PH_12KV_1 Length=0.000104 units=km
New Line.ND166677963$ND58833449 phases=1 Bus1=166677963.3 Bus2=58833449.3 LineCode=1/0_CLP_1PH_12KV_1 Length=0.118025 units=km
New Line.P5372366T1$ND166677255 phases=1 Bus1=166677255.1 Bus2=70903954.1 LineCode=350_CLP_1PH_12KV_1 Length=0.00469 units=km
New Line.P5591090-1$P5591089-2 phases=1 Bus1=138194492.3 Bus2=138194551.3 LineCode=2_JCN_1PH_12KV_1 Length=0.124435 units=km
New Line.ND42808748$143905991 phases=1 Bus1=42808748.1 Bus2=143905993.1 LineCode=1/0_CLP_1PH_12KV_1 Length=0.077989 units=km
New Line.P5407732-A$173362361 phases=3 Bus1=173362364.1.2.3 Bus2=156967603.1.2.3 LineCode=1/0_CLP_3PH_12KV_3 Length=0.001825 units=km
New Line.P5407160-2$164505663 phases=1 Bus1=42737672.3 Bus2=164505665.3 LineCode=1/0_CLP_1PH_12KV_1 Length=0.070692 units=km
New Line.180246941$ND179416661 phases=1 Bus1=179416661.2 Bus2=180246943.2 LineCode=2_CLP_1PH_12KV_1 Length=0.185153 units=km
New Line.168957577$180247014 phases=1 Bus1=168957579.3 Bus2=180247016.3 LineCode=2_CLP_1PH_12KV_1 Length=0.469452 units=km
New Line.264805239$295945912 phases=2 Bus1=295945914.1.2 Bus2=264805241.1.2 LineCode=1/0_JCN_2PH_12KV_2 Length=0.013456 units=km
New Line.296014657$296014682 phases=2 Bus1=296014659.1.3 Bus2=296014684.1.3 LineCode=1/0_JCN_2PH_12KV_2 Length=0.020028 units=km
New Line.296014632$296014982 phases=2 Bus1=296014634.1.2 Bus2=296014984.1.2 LineCode=1/0_JCN_2PH_12KV_2 Length=0.020775 units=km
New Line.304730247$304730217 phases=2 Bus1=304730219.2.3 Bus2=304730249.2.3 LineCode=1/0_JCN_2PH_12KV_2 Length=0.070606 units=km
New Line.309071709$P5786104-A phases=2 Bus1=309071712.1.2 Bus2=309071467.1.2 LineCode=1/0_JCN_2PH_12KV_2 Length=0.000193 units=km
New Line.309071986$P5786108-A phases=2 Bus1=309071989.1.2 Bus2=309071894.1.2 LineCode=1/0_JCN_2PH_12KV_2 Length=0.009548 units=km
New Line.FC4264-1$42734617 phases=1 Bus1=42734342.3 Bus2=42734619.3 LineCode=2_CLP_1PH_12KV_1 Length=0.044835 units=km
New Line.42734781$ND179416661 phases=1 Bus1=179416661.2 Bus2=42734783.2 LineCode=2_CLP_1PH_12KV_1 Length=0.040916 units=km
New Line.P5481740-1$42736927 phases=1 Bus1=42736930.1 Bus2=42736943.1 LineCode=350_CLP_1PH_12KV_1 Length=0.00096 units=km
New Line.P5486275-1$42760311 phases=1 Bus1=42760314.1 Bus2=42760327.1 LineCode=350_CLP_1PH_12KV_1 Length=0.001599 units=km
New Line.J280A-4P$42760475 phases=1 Bus1=42761234.2 Bus2=42760477.2 LineCode=350_CLP_1PH_12KV_1 Length=0.138388 units=km
New Line.P5485535-2$42760639 phases=1 Bus1=42760642.2 Bus2=42760664.2 LineCode=350_CLP_1PH_12KV_1 Length=0.00089 units=km
New Line.J280A-2P$42761342 phases=1 Bus1=42761242.2 Bus2=42761344.2 LineCode=350_CLP_1PH_12KV_1 Length=0.18059 units=km
New Line.P5372366T1$ND42808516 phases=1 Bus1=70903954.1 Bus2=42808516.1 LineCode=2_CLP_1PH_12KV_1 Length=0.223087 units=km
New Line.168957510$ND42808907 phases=1 Bus1=168957512.1 Bus2=42808907.1 LineCode=2_CLP_1PH_12KV_1 Length=0.0057 units=km
New Line.ND42808748$ND42809018 phases=2 Bus1=42808748.1.2 Bus2=42809018.1.2 LineCode=1/0_CLP_2PH_12KV_2 Length=0.006607 units=km
New Line.B5407071-1$B5407072-1 phases=1 Bus1=58758535.1 Bus2=58758463.1 LineCode=1/0_CLP_1PH_12KV_1 Length=0.158916 units=km
New Line.ND166677983$B5422531-2 phases=1 Bus1=166677983.1 Bus2=58758688.1 LineCode=1/0_CLP_1PH_12KV_1 Length=0.134581 units=km
New Line.B5445144-2$ND58833449 phases=1 Bus1=58833449.3 Bus2=58767924.3 LineCode=1/0_CLP_1PH_12KV_1 Length=0.009534 units=km
New Line.B5422535-1$ND166677983 phases=1 Bus1=166677983.1 Bus2=58769810.1 LineCode=1/0_CLP_1PH_12KV_1 Length=0.484659 units=km
New Line.P5486251-1$58787214 phases=1 Bus1=58787230.2 Bus2=58787217.2 LineCode=1/0_CLP_1PH_12KV_1 Length=0.001724 units=km
New Line.PME3441-1$58832258 phases=1 Bus1=58786703.1 Bus2=58832261.1 LineCode=2_CLP_1PH_12KV_1 Length=0.001029 units=km
New Line.ND58833449$ND58833350 phases=1 Bus1=58833449.3 Bus2=58833350.3 LineCode=1/0_CLP_1PH_12KV_1 Length=0.112655 units=km
New Line.138172595$ND42809018 phases=1 Bus1=42809018.2 Bus2=138172597.2 LineCode=1/0_CLP_1PH_12KV_1 Length=0.066664 units=km
New Line.P5407153-1$173362673 phases=1 Bus1=42710853.2 Bus2=173362675.2 LineCode=1/0_CLP_1PH_12KV_1 Length=0.080262 units=km
New Line.269096531$287568174 phases=2 Bus1=287568176.1.2 Bus2=269096533.1.2 LineCode=1/0_JCN_2PH_12KV_2 Length=0.013316 units=km
New Line.ND42808907$42735099 phases=1 Bus1=42808907.1 Bus2=42735101.1 LineCode=2_CLP_1PH_12KV_1 Length=0.070254 units=km
New Line.ND42808907$42735485 phases=1 Bus1=42808907.1 Bus2=42735487.1 LineCode=2_CLP_1PH_12KV_1 Length=0.158592 units=km
New Line.P5481329-1$42737945 phases=1 Bus1=42736779.1 Bus2=42737947.1 LineCode=350_CLP_1PH_12KV_1 Length=0.067588 units=km
New Line.ND42808516$P5372377 phases=1 Bus1=42808516.1 Bus2=42807357.1 LineCode=2_CLP_1PH_12KV_1 Length=0.002388 units=km
New Line.V5372386$ND42808516 phases=1 Bus1=42808516.1 Bus2=42807364.1 LineCode=2_CLP_1PH_12KV_1 Length=0.508713 units=km
New Line.J280A-1P$ND42808824 phases=2 Bus1=42761218.2.3 Bus2=42808824.2.3 LineCode=350_CLP_2PH_12KV_2 Length=0.004357 units=km
New Line.ND42809018$ND42809019 phases=2 Bus1=42809018.1.2 Bus2=42809019.1.2 LineCode=1/0_CLP_2PH_12KV_2 Length=0.012144 units=km
New Line.B5445148-1$ND58833350 phases=1 Bus1=58833350.3 Bus2=58767771.3 LineCode=1/0_CLP_1PH_12KV_1 Length=0.072304 units=km
New Line.B5445149-1$ND58833350 phases=1 Bus1=58833350.3 Bus2=58767843.3 LineCode=1/0_CLP_1PH_12KV_1 Length=0.006466 units=km
New Line.143906019$ND42809019 phases=1 Bus1=42809019.1 Bus2=143906021.1 LineCode=1/0_CLP_1PH_12KV_1 Length=0.071885 units=km
New Line.ND180247325$42734617 phases=1 Bus1=42734620.3 Bus2=180247325.3 LineCode=2_CLP_1PH_12KV_1 Length=0.000908 units=km
New Line.P5734994-2$264805239 phases=2 Bus1=264805242.1.2 Bus2=264805175.1.2 LineCode=1/0_JCN_2PH_12KV_2 Length=0.001434 units=km
New Line.287568894$P5702213-B phases=2 Bus1=287568236.1.2 Bus2=287568897.1.2 LineCode=1/0_JCN_2PH_12KV_2 Length=0.001829 units=km
New Line.288883551$ND42809019 phases=1 Bus1=42809019.2 Bus2=288883553.2 LineCode=1/0_CLP_1PH_12KV_1 Length=0.23475 units=km
New Line.296014982$P5702222-A phases=2 Bus1=296014985.1.2 Bus2=295602926.1.2 LineCode=1/0_JCN_2PH_12KV_2 Length=0.000743 units=km
New Line.296014682$P5702220-A phases=2 Bus1=296014685.1.3 Bus2=295603015.1.3 LineCode=1/0_JCN_2PH_12KV_2 Length=0.001173 units=km
New Line.304730247$P5761843-A phases=2 Bus1=304730250.2.3 Bus2=304730116.2.3 LineCode=1/0_JCN_2PH_12KV_2 Length=0.0014 units=km
New Line.P5445250-1$143905991 phases=1 Bus1=143905994.1 Bus2=42711892.1 LineCode=1/0_CLP_1PH_12KV_1 Length=0.003479 units=km
New Line.42734781$P5475447-1 phases=1 Bus1=42734784.2 Bus2=42734797.2 LineCode=2_CLP_1PH_12KV_1 Length=0.000616 units=km
New Line.180247014$P5475443-2 phases=1 Bus1=180247017.3 Bus2=42735346.3 LineCode=2_CLP_1PH_12KV_1 Length=0.002298 units=km
New Line.P5407159-1$164505663 phases=1 Bus1=164505666.3 Bus2=42737735.3 LineCode=1/0_CLP_1PH_12KV_1 Length=0.002755 units=km
New Line.P5486279-2$42760475 phases=1 Bus1=42760478.2 Bus2=42760500.2 LineCode=350_CLP_1PH_12KV_1 Length=0.007607 units=km
New Line.P5486166-2$42761342 phases=1 Bus1=42761345.2 Bus2=42761367.2 LineCode=350_CLP_1PH_12KV_1 Length=0.001787 units=km
New Line.ND42808824$42761588 phases=1 Bus1=42808824.2 Bus2=42761590.2 LineCode=350_CLP_1PH_12KV_1 Length=0.114879 units=km
New Line.ND42808824$42761752 phases=1 Bus1=42808824.3 Bus2=42761754.3 LineCode=350_CLP_1PH_12KV_1 Length=0.195569 units=km
New Line.P5475438-2$180246941 phases=1 Bus1=180246944.2 Bus2=42786370.2 LineCode=2_CLP_1PH_12KV_1 Length=0.002774 units=km
New Line.42807451$P5374880-B phases=3 Bus1=156967177.1.2.3 Bus2=42807454.1.2.3 LineCode=1/0_CLP_3PH_12KV_3 Length=0.002789 units=km
New Line.B5407066-1$B5407067-1 phases=1 Bus1=58758031.3 Bus2=58757959.3 LineCode=1/0_CLP_1PH_12KV_1 Length=0.091767 units=km
New Line.P5447282-1$58785295 phases=1 Bus1=58785311.3 Bus2=58785298.3 LineCode=1/0_CLP_1PH_12KV_1 Length=0.001054 units=km
New Line.P5447285-1$58785906 phases=1 Bus1=58785922.3 Bus2=58785909.3 LineCode=1/0_CLP_1PH_12KV_1 Length=0.001402 units=km
New Line.58832258$J374A-3P phases=1 Bus1=58832260.1 Bus2=58786831.1 LineCode=2_CLP_1PH_12KV_1 Length=0.01504 units=km
New Line.58787214$58787306 phases=1 Bus1=58787216.2 Bus2=58787308.2 LineCode=1/0_CLP_1PH_12KV_1 Length=0.071983 units=km
New Line.173362388$P5407732-B phases=3 Bus1=156967586.1.2.3 Bus2=173362391.1.2.3 LineCode=1/0_CLP_3PH_12KV_3 Length=0.002147 units=km
New Line.P5481740-2$176736309 phases=1 Bus1=42736952.1 Bus2=176736312.1 LineCode=350_CLP_1PH_12KV_1 Length=0.001287 units=km
New Line.P5485535-1$176736450 phases=1 Bus1=42760655.2 Bus2=176736453.2 LineCode=350_CLP_1PH_12KV_1 Length=0.001916 units=km
New Line.ND180247325$180247337 phases=1 Bus1=180247325.3 Bus2=180247340.3 LineCode=2_CLP_1PH_12KV_1 Length=0.009277 units=km
New Line.P5772979-1$269096531 phases=2 Bus1=269096534.1.2 Bus2=269096469.1.2 LineCode=1/0_JCN_2PH_12KV_2 Length=0.000831 units=km
New Line.P5786104-B$309071809 phases=2 Bus1=309071475.1.2 Bus2=309071812.1.2 LineCode=1/0_JCN_2PH_12KV_2 Length=0.001287 units=km
New Line.309072171$P5786108-B phases=2 Bus1=309071902.1.2 Bus2=309072174.1.2 LineCode=1/0_JCN_2PH_12KV_2 Length=0.007514 units=km
New Line.173362673$P5407154-1 phases=1 Bus1=173362676.2 Bus2=42710925.2 LineCode=1/0_CLP_1PH_12KV_1 Length=0.000969 units=km
New Line.P5445303-2$138172595 phases=1 Bus1=138172598.2 Bus2=42711829.2 LineCode=1/0_CLP_1PH_12KV_1 Length=0.003138 units=km
New Line.P5474265-1$ND180247325 phases=1 Bus1=180247325.3 Bus2=42734633.3 LineCode=2_CLP_1PH_12KV_1 Length=0.001941 units=km
New Line.P5475435-2$42735099 phases=1 Bus1=42735102.1 Bus2=42735124.1 LineCode=2_CLP_1PH_12KV_1 Length=0.001318 units=km
New Line.P5475437-2$42735485 phases=1 Bus1=42735488.1 Bus2=42735510.1 LineCode=2_CLP_1PH_12KV_1 Length=0.001258 units=km
New Line.P5486277-1$42737945 phases=1 Bus1=42737948.1 Bus2=42737961.1 LineCode=350_CLP_1PH_12KV_1 Length=0.006021 units=km
New Line.P5486275-2$42760393 phases=1 Bus1=42760336.1 Bus2=42760395.1 LineCode=350_CLP_1PH_12KV_1 Length=0.151839 units=km
New Line.B5407072-2$B5407073-2 phases=1 Bus1=58758472.1 Bus2=58758400.1 LineCode=1/0_CLP_1PH_12KV_1 Length=0.108474 units=km
New Line.B5445146-2$B5445144-1 phases=1 Bus1=58767915.3 Bus2=58768068.3 LineCode=1/0_CLP_1PH_12KV_1 Length=0.092581 units=km
New Line.B5422535-2$B5422536-2 phases=1 Bus1=58769819.1 Bus2=58770405.1 LineCode=1/0_CLP_1PH_12KV_1 Length=0.204758 units=km
New Line.B5422531-1$ND58833200 phases=1 Bus1=58758679.1 Bus2=58833200.1 LineCode=1/0_CLP_1PH_12KV_1 Length=0.130014 units=km
New Line.287568869$287568894 phases=2 Bus1=287568896.1.2 Bus2=287568871.1.2 LineCode=1/0_JCN_2PH_12KV_2 Length=0.016277 units=km
New Line.P5445305-2$143906019 phases=1 Bus1=143906022.1 Bus2=42711685.1 LineCode=1/0_CLP_1PH_12KV_1 Length=0.003406 units=km
New Line.P5445306-1$288883551 phases=1 Bus1=288883554.2 Bus2=42711748.2 LineCode=1/0_CLP_1PH_12KV_1 Length=0.001546 units=km
New Line.42807451$J458-4P phases=3 Bus1=42807453.1.2.3 Bus2=42711979.1.2.3 LineCode=1/0_CLP_3PH_12KV_3 Length=0.40857 units=km
New Line.P5486282-1$42761588 phases=1 Bus1=42761591.2 Bus2=42761604.2 LineCode=350_CLP_1PH_12KV_1 Length=0.004282 units=km
New Line.P5486283-1$42761752 phases=1 Bus1=42761755.3 Bus2=42761768.3 LineCode=350_CLP_1PH_12KV_1 Length=0.003418 units=km
New Line.ND58833200$B5422532-1 phases=1 Bus1=58833200.1 Bus2=58758607.1 LineCode=1/0_CLP_1PH_12KV_1 Length=0.078737 units=km
New Line.B5445149-2$B5445150-1 phases=1 Bus1=58767852.3 Bus2=58767699.3 LineCode=1/0_CLP_1PH_12KV_1 Length=0.097639 units=km
New Line.ND58833200$B5422533-2 phases=1 Bus1=58833200.1 Bus2=58769891.1 LineCode=1/0_CLP_1PH_12KV_1 Length=0.156259 units=km
New Line.P5486252-1$58787306 phases=1 Bus1=58787309.2 Bus2=58787322.2 LineCode=1/0_CLP_1PH_12KV_1 Length=0.001784 units=km
New Line.89685697$58785295 phases=1 Bus1=58785297.3 Bus2=89685699.3 LineCode=1/0_CLP_1PH_12KV_1 Length=0.088988 units=km
New Line.58785906$ND89685907 phases=1 Bus1=58785908.3 Bus2=89685907.3 LineCode=1/0_CLP_1PH_12KV_1 Length=0.029764 units=km
New Line.P5407159-2$164505636 phases=1 Bus1=42737744.3 Bus2=164505639.3 LineCode=1/0_CLP_1PH_12KV_1 Length=0.00257 units=km
New Line.173362418$173362388 phases=3 Bus1=173362390.1.2.3 Bus2=173362420.1.2.3 LineCode=1/0_CLP_3PH_12KV_3 Length=0.158557 units=km
New Line.176736309$176736351 phases=1 Bus1=176736311.1 Bus2=176736353.1 LineCode=350_CLP_1PH_12KV_1 Length=0.0635 units=km
New Line.180246968$P5475438-1 phases=1 Bus1=42786361.2 Bus2=180246971.2 LineCode=2_CLP_1PH_12KV_1 Length=0.118531 units=km
New Line.P5475443-1$ND180247007 phases=1 Bus1=42735337.3 Bus2=180247007.3 LineCode=2_CLP_1PH_12KV_1 Length=0.001319 units=km
New Line.P5702220-B$296014707 phases=2 Bus1=295603007.1.3 Bus2=296014710.1.3 LineCode=1/0_JCN_2PH_12KV_2 Length=0.002783 units=km
New Line.P5734994-1$296014907 phases=2 Bus1=264805166.1.2 Bus2=296014910.1.2 LineCode=1/0_JCN_2PH_12KV_2 Length=0.001779 units=km
New Line.P5702222-B$296014957 phases=2 Bus1=295602918.1.2 Bus2=296014960.1.2 LineCode=1/0_JCN_2PH_12KV_2 Length=0.001879 units=km
New Line.P5761843-B$304730491 phases=2 Bus1=304730124.2.3 Bus2=304730494.2.3 LineCode=1/0_JCN_2PH_12KV_2 Length=0.001479 units=km
New Line.309071809$309071834 phases=2 Bus1=309071811.1.2 Bus2=309071836.1.2 LineCode=1/0_JCN_2PH_12KV_2 Length=0.054611 units=km
New Line.309072171$309072135 phases=2 Bus1=309072173.1.2 Bus2=309072137.1.2 LineCode=1/0_JCN_2PH_12KV_2 Length=0.090814 units=km
New Line.180247337$P5444657-2 phases=1 Bus1=180247339.3 Bus2=42735582.3 LineCode=2_CLP_1PH_12KV_1 Length=0.120092 units=km
New Line.42760393$P5486276-2 phases=1 Bus1=42760396.1 Bus2=42760418.1 LineCode=350_CLP_1PH_12KV_1 Length=0.002705 units=km
New Line.176736450$42760721 phases=1 Bus1=176736452.2 Bus2=42760723.2 LineCode=350_CLP_1PH_12KV_1 Length=0.162603 units=km
New Line.P5486279-1$42761131 phases=1 Bus1=42760491.2 Bus2=42761133.2 LineCode=350_CLP_1PH_12KV_1 Length=0.074549 units=km
New Line.P5486166-1$42761424 phases=1 Bus1=42761358.2 Bus2=42761426.2 LineCode=350_CLP_1PH_12KV_1 Length=0.126361 units=km
New Line.B5407067-2$B5407068-2 phases=1 Bus1=58757968.3 Bus2=58757896.3 LineCode=1/0_CLP_1PH_12KV_1 Length=0.071099 units=km
New Line.ND89685907$58786244 phases=1 Bus1=89685907.3 Bus2=58786246.3 LineCode=1/0_CLP_1PH_12KV_1 Length=0.081596 units=km
New Line.ND89685907$89685752 phases=1 Bus1=89685907.3 Bus2=89685754.3 LineCode=1/0_CLP_1PH_12KV_1 Length=0.106539 units=km
New Line.P5475437-1$147808536 phases=1 Bus1=42735501.1 Bus2=147808539.1 LineCode=2_CLP_1PH_12KV_1 Length=0.013581 units=km
New Line.P5407154-2$173362714 phases=1 Bus1=42710934.2 Bus2=173362717.2 LineCode=1/0_CLP_1PH_12KV_1 Length=0.000732 units=km
New Line.180247048$ND180247007 phases=1 Bus1=180247007.3 Bus2=180247051.3 LineCode=2_CLP_1PH_12KV_1 Length=0.075552 units=km
New Line.P5474265-2$180247261 phases=1 Bus1=42734642.3 Bus2=180247264.3 LineCode=2_CLP_1PH_12KV_1 Length=0.061793 units=km
New Line.P5735126-2$287568869 phases=2 Bus1=287568872.1.2 Bus2=287568317.1.2 LineCode=1/0_JCN_2PH_12KV_2 Length=0.00079 units=km
New Line.P5772979-2$287568655 phases=2 Bus1=269096478.1.2 Bus2=287568658.1.2 LineCode=1/0_JCN_2PH_12KV_2 Length=0.001872 units=km
New Line.ND180247007$42735321 phases=1 Bus1=180247007.3 Bus2=42735324.3 LineCode=2_CLP_1PH_12KV_1 Length=0.001034 units=km
New Line.P5475435-1$42735403 phases=1 Bus1=42735115.1 Bus2=42735405.1 LineCode=2_CLP_1PH_12KV_1 Length=0.175155 units=km
New Line.P5486277-2$42738027 phases=1 Bus1=42737970.1 Bus2=42738029.1 LineCode=350_CLP_1PH_12KV_1 Length=0.185847 units=km
New Line.B5407073-1$B5407074-2 phases=1 Bus1=58758391.1 Bus2=58758328.1 LineCode=1/0_CLP_1PH_12KV_1 Length=0.176494 units=km
New Line.B5445146-1$B5445147-2 phases=1 Bus1=58768059.3 Bus2=58767996.3 LineCode=1/0_CLP_1PH_12KV_1 Length=0.137392 units=km
New Line.B5422537-1$B5422536-1 phases=1 Bus1=58770396.1 Bus2=58770468.1 LineCode=1/0_CLP_1PH_12KV_1 Length=0.077924 units=km
New Line.89685697$P5447283-2 phases=1 Bus1=89685700.3 Bus2=58786013.3 LineCode=1/0_CLP_1PH_12KV_1 Length=0.00124 units=km
New Line.B5481377-2$J374A-2P phases=1 Bus1=58786839.1 Bus2=58787003.1 LineCode=2_CLP_1PH_12KV_1 Length=0.080779 units=km
New Line.143906046$P5445305-1 phases=1 Bus1=42711676.1 Bus2=143906049.1 LineCode=1/0_CLP_1PH_12KV_1 Length=0.003819 units=km
New Line.164505636$149251649 phases=1 Bus1=164505638.3 Bus2=149251651.3 LineCode=1/0_CLP_1PH_12KV_1 Length=0.09476 units=km
New Line.P5407733-A$173362418 phases=3 Bus1=173362421.1.2.3 Bus2=156967481.1.2.3 LineCode=1/0_CLP_3PH_12KV_3 Length=0.00194 units=km
New Line.288883578$P5445306-2 phases=1 Bus1=42711757.2 Bus2=288883581.2 LineCode=1/0_CLP_1PH_12KV_1 Length=0.106271 units=km
New Line.296014707$296014732 phases=2 Bus1=296014709.1.3 Bus2=296014734.1.3 LineCode=1/0_JCN_2PH_12KV_2 Length=0.029091 units=km
New Line.296014957$296014882 phases=2 Bus1=296014959.1.2 Bus2=296014884.1.2 LineCode=1/0_JCN_2PH_12KV_2 Length=0.015416 units=km
New Line.296014907$296014932 phases=2 Bus1=296014909.1.2 Bus2=296014934.1.2 LineCode=1/0_JCN_2PH_12KV_2 Length=0.016143 units=km
New Line.304730491$P5761438-2 phases=2 Bus1=304730493.2.3 Bus2=304730295.2.3 LineCode=1/0_JCN_2PH_12KV_2 Length=0.011214 units=km
New Line.309071834$P5786106-2 phases=2 Bus1=309071837.1.2 Bus2=309071749.1.2 LineCode=1/0_JCN_2PH_12KV_2 Length=0.001113 units=km
New Line.P5786110-1$309072135 phases=2 Bus1=309072138.1.2 Bus2=309072066.1.2 LineCode=1/0_JCN_2PH_12KV_2 Length=0.00103 units=km
New Line.42760721$P5485536-1 phases=1 Bus1=42760724.2 Bus2=42760737.2 LineCode=350_CLP_1PH_12KV_1 Length=0.009251 units=km
New Line.176736351$P5487881-2 phases=1 Bus1=176736354.1 Bus2=42760828.1 LineCode=350_CLP_1PH_12KV_1 Length=0.001802 units=km
New Line.42761131$P5486169-1 phases=1 Bus1=42761134.2 Bus2=42761147.2 LineCode=350_CLP_1PH_12KV_1 Length=0.0011 units=km
New Line.P5486167-2$42761424 phases=1 Bus1=42761427.2 Bus2=42761449.2 LineCode=350_CLP_1PH_12KV_1 Length=0.001621 units=km
New Line.P5486282-2$42761670 phases=1 Bus1=42761613.2 Bus2=42761672.2 LineCode=350_CLP_1PH_12KV_1 Length=0.085451 units=km
New Line.P5486170-2$P5486283-2 phases=1 Bus1=42761777.3 Bus2=42761849.3 LineCode=350_CLP_1PH_12KV_1 Length=0.106368 units=km
New Line.P5475439-2$180246968 phases=1 Bus1=180246970.2 Bus2=42786442.2 LineCode=2_CLP_1PH_12KV_1 Length=0.107473 units=km
New Line.B5422533-1$B5422534-1 phases=1 Bus1=58769882.1 Bus2=58769954.1 LineCode=1/0_CLP_1PH_12KV_1 Length=0.105505 units=km
New Line.89685752$P5447287-2 phases=1 Bus1=89685755.3 Bus2=58785842.3 LineCode=1/0_CLP_1PH_12KV_1 Length=0.003366 units=km
New Line.58786244$P5485653-2 phases=1 Bus1=58786247.3 Bus2=58786269.3 LineCode=1/0_CLP_1PH_12KV_1 Length=0.001636 units=km
New Line.B5481375-1$J374A-1P phases=1 Bus1=58786823.1 Bus2=58786752.1 LineCode=2_CLP_1PH_12KV_1 Length=0.129108 units=km
New Line.P5486252-2$58787296 phases=1 Bus1=58787331.2 Bus2=58787299.2 LineCode=1/0_CLP_1PH_12KV_1 Length=0.002002 units=km
New Line.173362714$173362741 phases=1 Bus1=173362716.2 Bus2=173362743.2 LineCode=1/0_CLP_1PH_12KV_1 Length=0.083871 units=km
New Line.180247048$180247073 phases=1 Bus1=180247050.3 Bus2=180247075.3 LineCode=2_CLP_1PH_12KV_1 Length=0.040565 units=km
New Line.287568655$287568680 phases=2 Bus1=287568657.1.2 Bus2=287568682.1.2 LineCode=1/0_JCN_2PH_12KV_2 Length=0.051229 units=km
New Line.42736845$ND42858526 phases=1 Bus1=42736870.1 Bus2=-77777742736870.1 LineCode=350_CLP_1PH_12KV_1 Length=0.00094 units=km
New Line.42734535$180247261 phases=1 Bus1=180247263.3 Bus2=42734537.3 LineCode=2_CLP_1PH_12KV_1 Length=0.049105 units=km
New Line.42735403$P5475436-2 phases=1 Bus1=42735406.1 Bus2=42735428.1 LineCode=2_CLP_1PH_12KV_1 Length=0.001933 units=km
New Line.42735321$42735649 phases=1 Bus1=42735323.3 Bus2=42735651.3 LineCode=2_CLP_1PH_12KV_1 Length=0.122555 units=km
New Line.P5477558-2$147808536 phases=1 Bus1=147808538.1 Bus2=42737168.1 LineCode=2_CLP_1PH_12KV_1 Length=0.123576 units=km
New Line.42738027$P5486278-1 phases=1 Bus1=42738030.1 Bus2=42738043.1 LineCode=350_CLP_1PH_12KV_1 Length=0.001378 units=km
New Line.P5477566-1$P5444657-1 phases=1 Bus1=42735573.3 Bus2=42786289.3 LineCode=2_CLP_1PH_12KV_1 Length=0.082277 units=km
New Line.B5407068-1$B5407069-1 phases=1 Bus1=58757887.3 Bus2=58757815.3 LineCode=1/0_CLP_1PH_12KV_1 Length=0.116526 units=km
New Line.J458-2P$102586100 phases=3 Bus1=42711987.1.2.3 Bus2=102586102.1.2.3 LineCode=1/0_CLP_3PH_12KV_3 Length=0.029563 units=km
New Line.254159219$288883578 phases=1 Bus1=288883580.2 Bus2=254159221.2 LineCode=1/0_CLP_1PH_12KV_1 Length=0.053884 units=km
New Line.287568844$P5735126-1 phases=2 Bus1=287568308.1.2 Bus2=287568847.1.2 LineCode=1/0_JCN_2PH_12KV_2 Length=0.000918 units=km
New Line.296014932$P5761841-2 phases=2 Bus1=296014935.1.2 Bus2=295358338.1.2 LineCode=1/0_JCN_2PH_12KV_2 Length=0.001216 units=km
New Line.296014882$P5761840-2 phases=2 Bus1=296014885.1.2 Bus2=295358406.1.2 LineCode=1/0_JCN_2PH_12KV_2 Length=0.00085 units=km
New Line.296014732$P5761838-1 phases=2 Bus1=296014735.1.3 Bus2=295602833.1.3 LineCode=1/0_JCN_2PH_12KV_2 Length=0.001231 units=km
New Line.P5445312-1$143906046 phases=1 Bus1=143906048.1 Bus2=42733973.1 LineCode=1/0_CLP_1PH_12KV_1 Length=0.098623 units=km
New Line.P5407158-2$149251649 phases=1 Bus1=149251652.3 Bus2=42737816.3 LineCode=1/0_CLP_1PH_12KV_1 Length=0.002141 units=km
New Line.42761670$P5486284-1 phases=1 Bus1=42761673.2 Bus2=42761686.2 LineCode=350_CLP_1PH_12KV_1 Length=0.005559 units=km
New Line.B5407074-1$B5407075-1 phases=1 Bus1=58758319.1 Bus2=58758247.1 LineCode=1/0_CLP_1PH_12KV_1 Length=0.101218 units=km
New Line.B5481378-2$B5481377-1 phases=1 Bus1=58786994.1 Bus2=58787075.1 LineCode=2_CLP_1PH_12KV_1 Length=0.09238 units=km
New Line.58787296$58787388 phases=1 Bus1=58787298.2 Bus2=58787390.2 LineCode=1/0_CLP_1PH_12KV_1 Length=0.109137 units=km
New Line.P5475439-1$138698439 phases=1 Bus1=42786433.2 Bus2=138698441.2 LineCode=2_CLP_1PH_12KV_1 Length=0.146215 units=km
New Line.173362445$P5407733-B phases=3 Bus1=156967499.1.2.3 Bus2=173362448.1.2.3 LineCode=1/0_CLP_3PH_12KV_3 Length=0.001916 units=km
New Line.J458-1P$242341519 phases=3 Bus1=42711963.1.2.3 Bus2=242341521.1.2.3 LineCode=1/0_CLP_3PH_12KV_3 Length=0.145681 units=km
New Line.287568680$P5702212-2 phases=2 Bus1=287568683.1.2 Bus2=287568521.1.2 LineCode=1/0_JCN_2PH_12KV_2 Length=0.001425 units=km
New Line.P5761438-1$304730562 phases=2 Bus1=304730286.2.3 Bus2=304730564.2.3 LineCode=1/0_JCN_2PH_12KV_2 Length=0.007336 units=km
New Line.173362741$P5407155-2 phases=1 Bus1=173362744.2 Bus2=42711006.2 LineCode=1/0_CLP_1PH_12KV_1 Length=0.000283 units=km
New Line.42734535$P5474266-1 phases=1 Bus1=42734538.3 Bus2=42734551.3 LineCode=2_CLP_1PH_12KV_1 Length=0.002437 units=km
New Line.P5475444-2$42735649 phases=1 Bus1=42735652.3 Bus2=42735674.3 LineCode=2_CLP_1PH_12KV_1 Length=0.004867 units=km
New Line.P5477563-1$180247073 phases=1 Bus1=180247076.3 Bus2=42737087.3 LineCode=2_CLP_1PH_12KV_1 Length=0.002038 units=km
New Line.P5487881-1$42760885 phases=1 Bus1=42760819.1 Bus2=42760887.1 LineCode=350_CLP_1PH_12KV_1 Length=0.196333 units=km
New Line.P5486167-1$42761506 phases=1 Bus1=42761440.2 Bus2=42761508.2 LineCode=350_CLP_1PH_12KV_1 Length=0.100665 units=km
New Line.P5486170-1$42761906 phases=1 Bus1=42761840.3 Bus2=42761908.3 LineCode=350_CLP_1PH_12KV_1 Length=0.082548 units=km
New Line.P5447287-1$58786326 phases=1 Bus1=58785833.3 Bus2=58786328.3 LineCode=1/0_CLP_1PH_12KV_1 Length=0.16282 units=km
New Line.B5481376-1$B5481375-2 phases=1 Bus1=58786761.1 Bus2=58787138.1 LineCode=2_CLP_1PH_12KV_1 Length=0.106847 units=km
New Line.102586100$P5398459-A phases=3 Bus1=102586103.1.2.3 Bus2=102586006.1.2.3 LineCode=1/0_CLP_3PH_12KV_3 Length=0.002537 units=km
New Line.287568819$287568844 phases=2 Bus1=287568846.1.2 Bus2=287568821.1.2 LineCode=1/0_JCN_2PH_12KV_2 Length=0.014278 units=km
New Line.P5445308-1$254159219 phases=1 Bus1=254159222.2 Bus2=42712193.2 LineCode=1/0_CLP_1PH_12KV_1 Length=0.0116 units=km
New Line.P5477558-1$ND42810291 phases=1 Bus1=42737159.1 Bus2=42810291.1 LineCode=2_CLP_1PH_12KV_1 Length=0.131587 units=km
New Line.P5486253-1$58787388 phases=1 Bus1=58787391.2 Bus2=58787414.2 LineCode=1/0_CLP_1PH_12KV_1 Length=0.002334 units=km
New Line.149251676$P5407158-1 phases=1 Bus1=42737807.3 Bus2=149251679.3 LineCode=1/0_CLP_1PH_12KV_1 Length=0.002858 units=km
New Line.169781141$ND42810291 phases=1 Bus1=42810291.1 Bus2=169781143.1 LineCode=2_CLP_1PH_12KV_1 Length=0.016346 units=km
...

! Switches
New Line.5628274:GS6028-2 phases=3 Bus1=161559163.1.2.3 Bus2=161559186.1.2.3 switch=y r1=0.001 x1=0.001 r0=0.001 x0=0.001 Length=0.001 units=km enabled=false
New Line.5628276:GS7231-1 phases=3 Bus1=240313754.1.2.3 Bus2=240313781.1.2.3 switch=y r1=0.001 x1=0.001 r0=0.001 x0=0.001 Length=0.001 units=km enabled=false
New Line.5734990:PME7303-4 phases=3 Bus1=264804720.1.2.3 Bus2=264804738.1.2.3 switch=y r1=0.001 x1=0.001 r0=0.001 x0=0.001 Length=0.001 units=km enabled=false
New Line.5772973:PME7305-4 phases=3 Bus1=268889532.1.2.3 Bus2=268889550.1.2.3 switch=y r1=0.001 x1=0.001 r0=0.001 x0=0.001 Length=0.001 units=km enabled=false
New Line.5398459:P5398459-B phases=3 Bus1=102586007.1.2.3 Bus2=102586024.1.2.3 switch=y r1=0.001 x1=0.001 r0=0.001 x0=0.001 Length=0.001 units=km enabled=false
New Line.5464891:GS6029-3 phases=3 Bus1=164163341.1.2.3 Bus2=164163370.1.2.3 switch=y r1=0.001 x1=0.001 r0=0.001 x0=0.001 Length=0.001 units=km enabled=false
New Line.287568174 phases=2 Bus1=287568177.1.2 Bus2=287568176.1.2 switch=y r1=0.001 x1=0.001 r0=0.001 x0=0.001 Length=0.001 units=km
New Line.143905991 phases=1 Bus1=143905993.1 Bus2=143905994.1 switch=y r1=0.001 x1=0.001 r0=0.001 x0=0.001 Length=0.001 units=km
New Line.164505663 phases=1 Bus1=164505665.3 Bus2=164505666.3 switch=y r1=0.001 x1=0.001 r0=0.001 x0=0.001 Length=0.001 units=km
New Line.180246941 phases=1 Bus1=180246943.2 Bus2=180246944.2 switch=y r1=0.001 x1=0.001 r0=0.001 x0=0.001 Length=0.001 units=km
New Line.180247014 phases=1 Bus1=180247016.3 Bus2=180247017.3 switch=y r1=0.001 x1=0.001 r0=0.001 x0=0.001 Length=0.001 units=km
New Line.264805239 phases=2 Bus1=264805241.1.2 Bus2=264805242.1.2 switch=y r1=0.001 x1=0.001 r0=0.001 x0=0.001 Length=0.001 units=km
New Line.296014682 phases=2 Bus1=296014684.1.3 Bus2=296014685.1.3 switch=y r1=0.001 x1=0.001 r0=0.001 x0=0.001 Length=0.001 units=km
New Line.296014982 phases=2 Bus1=296014984.1.2 Bus2=296014985.1.2 switch=y r1=0.001 x1=0.001 r0=0.001 x0=0.001 Length=0.001 units=km
New Line.304730247 phases=2 Bus1=304730249.2.3 Bus2=304730250.2.3 switch=y r1=0.001 x1=0.001 r0=0.001 x0=0.001 Length=0.001 units=km
New Line.42734617 phases=1 Bus1=42734619.3 Bus2=42734620.3 switch=y r1=0.001 x1=0.001 r0=0.001 x0=0.001 Length=0.001 units=km
New Line.42734781 phases=1 Bus1=42734783.2 Bus2=42734784.2 switch=y r1=0.001 x1=0.001 r0=0.001 x0=0.001 Length=0.001 units=km
New Line.42760475 phases=1 Bus1=42760477.2 Bus2=42760478.2 switch=y r1=0.001 x1=0.001 r0=0.001 x0=0.001 Length=0.001 units=km
New Line.42761342 phases=1 Bus1=42761344.2 Bus2=42761345.2 switch=y r1=0.001 x1=0.001 r0=0.001 x0=0.001 Length=0.001 units=km
New Line.58787214 phases=1 Bus1=58787217.2 Bus2=58787216.2 switch=y r1=0.001 x1=0.001 r0=0.001 x0=0.001 Length=0.001 units=km
New Line.58832258 phases=1 Bus1=58832261.1 Bus2=58832260.1 switch=y r1=0.001 x1=0.001 r0=0.001 x0=0.001 Length=0.001 units=km
New Line.138172595 phases=1 Bus1=138172597.2 Bus2=138172598.2 switch=y r1=0.001 x1=0.001 r0=0.001 x0=0.001 Length=0.001 units=km
New Line.173362673 phases=1 Bus1=173362675.2 Bus2=173362676.2 switch=y r1=0.001 x1=0.001 r0=0.001 x0=0.001 Length=0.001 units=km
New Line.269096531 phases=2 Bus1=269096533.1.2 Bus2=269096534.1.2 switch=y r1=0.001 x1=0.001 r0=0.001 x0=0.001 Length=0.001 units=km
New Line.42735099 phases=1 Bus1=42735101.1 Bus2=42735102.1 switch=y r1=0.001 x1=0.001 r0=0.001 x0=0.001 Length=0.001 units=km
New Line.42735485 phases=1 Bus1=42735487.1 Bus2=42735488.1 switch=y r1=0.001 x1=0.001 r0=0.001 x0=0.001 Length=0.001 units=km
New Line.42737945 phases=1 Bus1=42737947.1 Bus2=42737948.1 switch=y r1=0.001 x1=0.001 r0=0.001 x0=0.001 Length=0.001 units=km
New Line.143906019 phases=1 Bus1=143906021.1 Bus2=143906022.1 switch=y r1=0.001 x1=0.001 r0=0.001 x0=0.001 Length=0.001 units=km
New Line.287568894 phases=2 Bus1=287568897.1.2 Bus2=287568896.1.2 switch=y r1=0.001 x1=0.001 r0=0.001 x0=0.001 Length=0.001 units=km
New Line.288883551 phases=1 Bus1=288883553.2 Bus2=288883554.2 switch=y r1=0.001 x1=0.001 r0=0.001 x0=0.001 Length=0.001 units=km
New Line.42761588 phases=1 Bus1=42761590.2 Bus2=42761591.2 switch=y r1=0.001 x1=0.001 r0=0.001 x0=0.001 Length=0.001 units=km
New Line.42761752 phases=1 Bus1=42761754.3 Bus2=42761755.3 switch=y r1=0.001 x1=0.001 r0=0.001 x0=0.001 Length=0.001 units=km
New Line.42807451 phases=3 Bus1=42807454.1.2.3 Bus2=42807453.1.2.3 switch=y r1=0.001 x1=0.001 r0=0.001 x0=0.001 Length=0.001 units=km
New Line.58785295 phases=1 Bus1=58785298.3 Bus2=58785297.3 switch=y r1=0.001 x1=0.001 r0=0.001 x0=0.001 Length=0.001 units=km
New Line.58785906 phases=1 Bus1=58785909.3 Bus2=58785908.3 switch=y r1=0.001 x1=0.001 r0=0.001 x0=0.001 Length=0.001 units=km
New Line.58787306 phases=1 Bus1=58787308.2 Bus2=58787309.2 switch=y r1=0.001 x1=0.001 r0=0.001 x0=0.001 Length=0.001 units=km
New Line.173362388 phases=3 Bus1=173362391.1.2.3 Bus2=173362390.1.2.3 switch=y r1=0.001 x1=0.001 r0=0.001 x0=0.001 Length=0.001 units=km
New Line.176736309 phases=1 Bus1=176736312.1 Bus2=176736311.1 switch=y r1=0.001 x1=0.001 r0=0.001 x0=0.001 Length=0.001 units=km
New Line.176736450 phases=1 Bus1=176736453.2 Bus2=176736452.2 switch=y r1=0.001 x1=0.001 r0=0.001 x0=0.001 Length=0.001 units=km
New Line.180247337 phases=1 Bus1=180247340.3 Bus2=180247339.3 switch=y r1=0.001 x1=0.001 r0=0.001 x0=0.001 Length=0.001 units=km
New Line.309071809 phases=2 Bus1=309071812.1.2 Bus2=309071811.1.2 switch=y r1=0.001 x1=0.001 r0=0.001 x0=0.001 Length=0.001 units=km
New Line.309072171 phases=2 Bus1=309072174.1.2 Bus2=309072173.1.2 switch=y r1=0.001 x1=0.001 r0=0.001 x0=0.001 Length=0.001 units=km
New Line.42760393 phases=1 Bus1=42760395.1 Bus2=42760396.1 switch=y r1=0.001 x1=0.001 r0=0.001 x0=0.001 Length=0.001 units=km
New Line.58786836$58786828 phases=3 Bus1=58786832.1.2.3 Bus2=58786840.1.2.3 switch=y r1=0.001 x1=0.001 r0=0.001 x0=0.001 Length=0.001 units=km
New Line.287568869 phases=2 Bus1=287568871.1.2 Bus2=287568872.1.2 switch=y r1=0.001 x1=0.001 r0=0.001 x0=0.001 Length=0.001 units=km
New Line.58786820$58786836 phases=3 Bus1=58786840.1.2.3 Bus2=58786824.1.2.3 switch=y r1=0.001 x1=0.001 r0=0.001 x0=0.001 Length=0.001 units=km
New Line.89685697 phases=1 Bus1=89685699.3 Bus2=89685700.3 switch=y r1=0.001 x1=0.001 r0=0.001 x0=0.001 Length=0.001 units=km
New Line.164505636 phases=1 Bus1=164505639.3 Bus2=164505638.3 switch=y r1=0.001 x1=0.001 r0=0.001 x0=0.001 Length=0.001 units=km
New Line.173362418 phases=3 Bus1=173362420.1.2.3 Bus2=173362421.1.2.3 switch=y r1=0.001 x1=0.001 r0=0.001 x0=0.001 Length=0.001 units=km
New Line.176736351 phases=1 Bus1=176736353.1 Bus2=176736354.1 switch=y r1=0.001 x1=0.001 r0=0.001 x0=0.001 Length=0.001 units=km
New Line.180246968 phases=1 Bus1=180246971.2 Bus2=180246970.2 switch=y r1=0.001 x1=0.001 r0=0.001 x0=0.001 Length=0.001 units=km
New Line.296014707 phases=2 Bus1=296014710.1.3 Bus2=296014709.1.3 switch=y r1=0.001 x1=0.001 r0=0.001 x0=0.001 Length=0.001 units=km
New Line.296014907 phases=2 Bus1=296014910.1.2 Bus2=296014909.1.2 switch=y r1=0.001 x1=0.001 r0=0.001 x0=0.001 Length=0.001 units=km
New Line.296014957 phases=2 Bus1=296014960.1.2 Bus2=296014959.1.2 switch=y r1=0.001 x1=0.001 r0=0.001 x0=0.001 Length=0.001 units=km
New Line.304730491 phases=2 Bus1=304730494.2.3 Bus2=304730493.2.3 switch=y r1=0.001 x1=0.001 r0=0.001 x0=0.001 Length=0.001 units=km
New Line.309071834 phases=2 Bus1=309071836.1.2 Bus2=309071837.1.2 switch=y r1=0.001 x1=0.001 r0=0.001 x0=0.001 Length=0.001 units=km
New Line.309072135 phases=2 Bus1=309072137.1.2 Bus2=309072138.1.2 switch=y r1=0.001 x1=0.001 r0=0.001 x0=0.001 Length=0.001 units=km
New Line.42711968$42711976 phases=3 Bus1=42711980.1.2.3 Bus2=42711972.1.2.3 switch=y r1=0.001 x1=0.001 r0=0.001 x0=0.001 Length=0.001 units=km
New Line.42760721 phases=1 Bus1=42760723.2 Bus2=42760724.2 switch=y r1=0.001 x1=0.001 r0=0.001 x0=0.001 Length=0.001 units=km
New Line.42761131 phases=1 Bus1=42761133.2 Bus2=42761134.2 switch=y r1=0.001 x1=0.001 r0=0.001 x0=0.001 Length=0.001 units=km
New Line.42761424 phases=1 Bus1=42761426.2 Bus2=42761427.2 switch=y r1=0.001 x1=0.001 r0=0.001 x0=0.001 Length=0.001 units=km
New Line.58786244 phases=1 Bus1=58786246.3 Bus2=58786247.3 switch=y r1=0.001 x1=0.001 r0=0.001 x0=0.001 Length=0.001 units=km
New Line.89685752 phases=1 Bus1=89685754.3 Bus2=89685755.3 switch=y r1=0.001 x1=0.001 r0=0.001 x0=0.001 Length=0.001 units=km
New Line.147808536 phases=1 Bus1=147808539.1 Bus2=147808538.1 switch=y r1=0.001 x1=0.001 r0=0.001 x0=0.001 Length=0.001 units=km
New Line.173362714 phases=1 Bus1=173362717.2 Bus2=173362716.2 switch=y r1=0.001 x1=0.001 r0=0.001 x0=0.001 Length=0.001 units=km
New Line.180247048 phases=1 Bus1=180247051.3 Bus2=180247050.3 switch=y r1=0.001 x1=0.001 r0=0.001 x0=0.001 Length=0.001 units=km
New Line.180247261 phases=1 Bus1=180247264.3 Bus2=180247263.3 switch=y r1=0.001 x1=0.001 r0=0.001 x0=0.001 Length=0.001 units=km
New Line.287568655 phases=2 Bus1=287568658.1.2 Bus2=287568657.1.2 switch=y r1=0.001 x1=0.001 r0=0.001 x0=0.001 Length=0.001 units=km
New Line.42711984$42711968 phases=3 Bus1=42711972.1.2.3 Bus2=42711988.1.2.3 switch=y r1=0.001 x1=0.001 r0=0.001 x0=0.001 Length=0.001 units=km
New Line.42735321 phases=1 Bus1=42735324.3 Bus2=42735323.3 switch=y r1=0.001 x1=0.001 r0=0.001 x0=0.001 Length=0.001 units=km
New Line.42735403 phases=1 Bus1=42735405.1 Bus2=42735406.1 switch=y r1=0.001 x1=0.001 r0=0.001 x0=0.001 Length=0.001 units=km
New Line.42738027 phases=1 Bus1=42738029.1 Bus2=42738030.1 switch=y r1=0.001 x1=0.001 r0=0.001 x0=0.001 Length=0.001 units=km
New Line.143906046 phases=1 Bus1=143906049.1 Bus2=143906048.1 switch=y r1=0.001 x1=0.001 r0=0.001 x0=0.001 Length=0.001 units=km
New Line.149251649 phases=1 Bus1=149251651.3 Bus2=149251652.3 switch=y r1=0.001 x1=0.001 r0=0.001 x0=0.001 Length=0.001 units=km
New Line.288883578 phases=1 Bus1=288883581.2 Bus2=288883580.2 switch=y r1=0.001 x1=0.001 r0=0.001 x0=0.001 Length=0.001 units=km
New Line.296014732 phases=2 Bus1=296014734.1.3 Bus2=296014735.1.3 switch=y r1=0.001 x1=0.001 r0=0.001 x0=0.001 Length=0.001 units=km
New Line.296014882 phases=2 Bus1=296014884.1.2 Bus2=296014885.1.2 switch=y r1=0.001 x1=0.001 r0=0.001 x0=0.001 Length=0.001 units=km
New Line.296014932 phases=2 Bus1=296014934.1.2 Bus2=296014935.1.2 switch=y r1=0.001 x1=0.001 r0=0.001 x0=0.001 Length=0.001 units=km
New Line.42711960$42711984 phases=3 Bus1=42711988.1.2.3 Bus2=42711964.1.2.3 switch=y r1=0.001 x1=0.001 r0=0.001 x0=0.001 Length=0.001 units=km
New Line.5702213:P5702213-A phases=2 Bus1=287568244.1.2 Bus2=287568228.1.2 switch=y r1=0.001 x1=0.001 r0=0.001 x0=0.001 Length=0.001 units=km
New Line.5486280:J280A-1 phases=2 Bus1=42761219.2.3 Bus2=42761218.2.3 switch=y r1=0.001 x1=0.001 r0=0.001 x0=0.001 Length=0.001 units=km
New Line.5447285:P5447285-2 phases=1 Bus1=58785931.3 Bus2=58785923.3 switch=y r1=0.001 x1=0.001 r0=0.001 x0=0.001 Length=0.001 units=km
New Line.5702213:P5702213-T phases=2 Bus1=287568228.1.2 Bus2=287568227.1.2 switch=y r1=0.001 x1=0.001 r0=0.001 x0=0.001 Length=0.001 units=km
New Line.5702213:P5702213-B phases=2 Bus1=287568228.1.2 Bus2=287568236.1.2 switch=y r1=0.001 x1=0.001 r0=0.001 x0=0.001 Length=0.001 units=km
New Line.5786104:P5786104-A phases=2 Bus1=309071467.1.2 Bus2=309071459.1.2 switch=y r1=0.001 x1=0.001 r0=0.001 x0=0.001 Length=0.001 units=km
New Line.5786108:P5786108-A phases=2 Bus1=309071894.1.2 Bus2=309071886.1.2 switch=y r1=0.001 x1=0.001 r0=0.001 x0=0.001 Length=0.001 units=km
New Line.5447285:P5447285-1 phases=1 Bus1=58785923.3 Bus2=58785922.3 switch=y r1=0.001 x1=0.001 r0=0.001 x0=0.001 Length=0.001 units=km
New Line.5786104:P5786104-T phases=2 Bus1=309071459.1.2 Bus2=309071458.1.2 switch=y r1=0.001 x1=0.001 r0=0.001 x0=0.001 Length=0.001 units=km
New Line.5786104:P5786104-B phases=2 Bus1=309071459.1.2 Bus2=309071475.1.2 switch=y r1=0.001 x1=0.001 r0=0.001 x0=0.001 Length=0.001 units=km
New Line.5786108:P5786108-T phases=2 Bus1=309071886.1.2 Bus2=309071885.1.2 switch=y r1=0.001 x1=0.001 r0=0.001 x0=0.001 Length=0.001 units=km
New Line.5786108:P5786108-B phases=2 Bus1=309071886.1.2 Bus2=309071902.1.2 switch=y r1=0.001 x1=0.001 r0=0.001 x0=0.001 Length=0.001 units=km
New Line.5702222:P5702222-A phases=2 Bus1=295602926.1.2 Bus2=295602910.1.2 switch=y r1=0.001 x1=0.001 r0=0.001 x0=0.001 Length=0.001 units=km
New Line.5702220:P5702220-A phases=2 Bus1=295603015.1.3 Bus2=295602999.1.3 switch=y r1=0.001 x1=0.001 r0=0.001 x0=0.001 Length=0.001 units=km
New Line.5761843:P5761843-A phases=2 Bus1=304730116.2.3 Bus2=304730108.2.3 switch=y r1=0.001 x1=0.001 r0=0.001 x0=0.001 Length=0.001 units=km
New Line.5481374:J374-3 phases=1 Bus1=58786831.1 Bus2=58786832.1 switch=y r1=0.001 x1=0.001 r0=0.001 x0=0.001 Length=0.001 units=km
New Line.5702222:P5702222-T phases=2 Bus1=295602910.1.2 Bus2=295602909.1.2 switch=y r1=0.001 x1=0.001 r0=0.001 x0=0.001 Length=0.001 units=km
New Line.5702222:P5702222-B phases=2 Bus1=295602910.1.2 Bus2=295602918.1.2 switch=y r1=0.001 x1=0.001 r0=0.001 x0=0.001 Length=0.001 units=km
New Line.5702220:P5702220-T phases=2 Bus1=295602999.1.3 Bus2=295602998.1.3 switch=y r1=0.001 x1=0.001 r0=0.001 x0=0.001 Length=0.001 units=km
New Line.5702220:P5702220-B phases=2 Bus1=295602999.1.3 Bus2=295603007.1.3 switch=y r1=0.001 x1=0.001 r0=0.001 x0=0.001 Length=0.001 units=km
New Line.5761843:P5761843-T phases=2 Bus1=304730108.2.3 Bus2=304730107.2.3 switch=y r1=0.001 x1=0.001 r0=0.001 x0=0.001 Length=0.001 units=km
New Line.5761843:P5761843-B phases=2 Bus1=304730108.2.3 Bus2=304730124.2.3 switch=y r1=0.001 x1=0.001 r0=0.001 x0=0.001 Length=0.001 units=km
New Line.5407071:B5407071-1 phases=1 Bus1=58758536.1 Bus2=58758535.1 switch=y r1=0.001 x1=0.001 r0=0.001 x0=0.001 Length=0.001 units=km
New Line.5447284:P5447284-1 phases=1 Bus1=58785393.1 Bus2=58785394.1 switch=y r1=0.001 x1=0.001 r0=0.001 x0=0.001 Length=0.001 units=km
New Line.5486251:P5486251-1 phases=1 Bus1=58787231.2 Bus2=58787230.2 switch=y r1=0.001 x1=0.001 r0=0.001 x0=0.001 Length=0.001 units=km
New Line.5374880:P5374880-A phases=3 Bus1=156967194.1.2.3 Bus2=156967178.1.2.3 switch=y r1=0.001 x1=0.001 r0=0.001 x0=0.001 Length=0.001 units=km
New Line.5407153:P5407153-1 phases=1 Bus1=42710854.2 Bus2=42710853.2 switch=y r1=0.001 x1=0.001 r0=0.001 x0=0.001 Length=0.001 units=km
New Line.5481329:P5481329-1 phases=1 Bus1=42736780.1 Bus2=42736779.1 switch=y r1=0.001 x1=0.001 r0=0.001 x0=0.001 Length=0.001 units=km
New Line.5481739:P5481739-2 phases=1 Bus1=42736870.1 Bus2=42736862.1 switch=y r1=0.001 x1=0.001 r0=0.001 x0=0.001 Length=0.001 units=km
New Line.5407066:B5407066-2 phases=1 Bus1=58758040.3 Bus2=58758032.3 switch=y r1=0.001 x1=0.001 r0=0.001 x0=0.001 Length=0.001 units=km
New Line.5447282:P5447282-2 phases=1 Bus1=58785320.3 Bus2=58785312.3 switch=y r1=0.001 x1=0.001 r0=0.001 x0=0.001 Length=0.001 units=km
New Line.5591090:P5591090-1 phases=1 Bus1=138194551.3 Bus2=138194552.3 switch=y r1=0.001 x1=0.001 r0=0.001 x0=0.001 Length=0.001 units=km
New Line.5374880:P5374880-B phases=3 Bus1=156967178.1.2.3 Bus2=156967177.1.2.3 switch=y r1=0.001 x1=0.001 r0=0.001 x0=0.001 Length=0.001 units=km
New Line.5374880:P5374880-T phases=3 Bus1=156967178.1.2.3 Bus2=156967186.1.2.3 switch=y r1=0.001 x1=0.001 r0=0.001 x0=0.001 Length=0.001 units=km
New Line.5407732:P5407732-A phases=3 Bus1=156967603.1.2.3 Bus2=156967587.1.2.3 switch=y r1=0.001 x1=0.001 r0=0.001 x0=0.001 Length=0.001 units=km
New Line.5481740:P5481740-1 phases=1 Bus1=42736943.1 Bus2=42736944.1 switch=y r1=0.001 x1=0.001 r0=0.001 x0=0.001 Length=0.001 units=km
New Line.5486275:P5486275-1 phases=1 Bus1=42760327.1 Bus2=42760328.1 switch=y r1=0.001 x1=0.001 r0=0.001 x0=0.001 Length=0.001 units=km
New Line.5485535:P5485535-2 phases=1 Bus1=42760664.2 Bus2=42760656.2 switch=y r1=0.001 x1=0.001 r0=0.001 x0=0.001 Length=0.001 units=km
New Line.5407066:B5407066-1 phases=1 Bus1=58758032.3 Bus2=58758031.3 switch=y r1=0.001 x1=0.001 r0=0.001 x0=0.001 Length=0.001 units=km
New Line.5407072:B5407072-1 phases=1 Bus1=58758463.1 Bus2=58758464.1 switch=y r1=0.001 x1=0.001 r0=0.001 x0=0.001 Length=0.001 units=km
New Line.5422531:B5422531-2 phases=1 Bus1=58758688.1 Bus2=58758680.1 switch=y r1=0.001 x1=0.001 r0=0.001 x0=0.001 Length=0.001 units=km
New Line.5445144:B5445144-2 phases=1 Bus1=58767924.3 Bus2=58767916.3 switch=y r1=0.001 x1=0.001 r0=0.001 x0=0.001 Length=0.001 units=km
New Line.5422535:B5422535-1 phases=1 Bus1=58769810.1 Bus2=58769811.1 switch=y r1=0.001 x1=0.001 r0=0.001 x0=0.001 Length=0.001 units=km
New Line.5447282:P5447282-1 phases=1 Bus1=58785312.3 Bus2=58785311.3 switch=y r1=0.001 x1=0.001 r0=0.001 x0=0.001 Length=0.001 units=km
New Line.5407732:P5407732-B phases=3 Bus1=156967587.1.2.3 Bus2=156967586.1.2.3 switch=y r1=0.001 x1=0.001 r0=0.001 x0=0.001 Length=0.001 units=km
New Line.5407732:P5407732-T phases=3 Bus1=156967587.1.2.3 Bus2=156967595.1.2.3 switch=y r1=0.001 x1=0.001 r0=0.001 x0=0.001 Length=0.001 units=km
New Line.5481740:P5481740-2 phases=1 Bus1=42736944.1 Bus2=42736952.1 switch=y r1=0.001 x1=0.001 r0=0.001 x0=0.001 Length=0.001 units=km
New Line.5486275:P5486275-2 phases=1 Bus1=42760328.1 Bus2=42760336.1 switch=y r1=0.001 x1=0.001 r0=0.001 x0=0.001 Length=0.001 units=km
New Line.5485535:P5485535-1 phases=1 Bus1=42760656.2 Bus2=42760655.2 switch=y r1=0.001 x1=0.001 r0=0.001 x0=0.001 Length=0.001 units=km
New Line.5407072:B5407072-2 phases=1 Bus1=58758464.1 Bus2=58758472.1 switch=y r1=0.001 x1=0.001 r0=0.001 x0=0.001 Length=0.001 units=km
New Line.5422531:B5422531-1 phases=1 Bus1=58758680.1 Bus2=58758679.1 switch=y r1=0.001 x1=0.001 r0=0.001 x0=0.001 Length=0.001 units=km
New Line.5445148:B5445148-1 phases=1 Bus1=58767771.3 Bus2=58767772.3 switch=y r1=0.001 x1=0.001 r0=0.001 x0=0.001 Length=0.001 units=km
New Line.5445149:B5445149-1 phases=1 Bus1=58767843.3 Bus2=58767844.3 switch=y r1=0.001 x1=0.001 r0=0.001 x0=0.001 Length=0.001 units=km
New Line.5445144:B5445144-1 phases=1 Bus1=58767916.3 Bus2=58767915.3 switch=y r1=0.001 x1=0.001 r0=0.001 x0=0.001 Length=0.001 units=km
New Line.5422535:B5422535-2 phases=1 Bus1=58769811.1 Bus2=58769819.1 switch=y r1=0.001 x1=0.001 r0=0.001 x0=0.001 Length=0.001 units=km
New Line.5734994:P5734994-2 phases=2 Bus1=264805175.1.2 Bus2=264805167.1.2 switch=y r1=0.001 x1=0.001 r0=0.001 x0=0.001 Length=0.001 units=km
New Line.5445250:P5445250-1 phases=1 Bus1=42711892.1 Bus2=42711893.1 switch=y r1=0.001 x1=0.001 r0=0.001 x0=0.001 Length=0.001 units=km
New Line.5475447:P5475447-1 phases=1 Bus1=42734797.2 Bus2=42734798.2 switch=y r1=0.001 x1=0.001 r0=0.001 x0=0.001 Length=0.001 units=km
New Line.5475443:P5475443-2 phases=1 Bus1=42735346.3 Bus2=42735338.3 switch=y r1=0.001 x1=0.001 r0=0.001 x0=0.001 Length=0.001 units=km
New Line.5407159:P5407159-1 phases=1 Bus1=42737735.3 Bus2=42737736.3 switch=y r1=0.001 x1=0.001 r0=0.001 x0=0.001 Length=0.001 units=km
New Line.5486279:P5486279-2 phases=1 Bus1=42760500.2 Bus2=42760492.2 switch=y r1=0.001 x1=0.001 r0=0.001 x0=0.001 Length=0.001 units=km
New Line.5486166:P5486166-2 phases=1 Bus1=42761367.2 Bus2=42761359.2 switch=y r1=0.001 x1=0.001 r0=0.001 x0=0.001 Length=0.001 units=km
New Line.5475438:P5475438-2 phases=1 Bus1=42786370.2 Bus2=42786362.2 switch=y r1=0.001 x1=0.001 r0=0.001 x0=0.001 Length=0.001 units=km
New Line.5407067:B5407067-1 phases=1 Bus1=58757959.3 Bus2=58757960.3 switch=y r1=0.001 x1=0.001 r0=0.001 x0=0.001 Length=0.001 units=km
New Line.5445149:B5445149-2 phases=1 Bus1=58767844.3 Bus2=58767852.3 switch=y r1=0.001 x1=0.001 r0=0.001 x0=0.001 Length=0.001 units=km
New Line.5734994:P5734994-1 phases=2 Bus1=264805167.1.2 Bus2=264805166.1.2 switch=y r1=0.001 x1=0.001 r0=0.001 x0=0.001 Length=0.001 units=km
New Line.5772979:P5772979-1 phases=2 Bus1=269096469.1.2 Bus2=269096470.1.2 switch=y r1=0.001 x1=0.001 r0=0.001 x0=0.001 Length=0.001 units=km
New Line.5407154:P5407154-1 phases=1 Bus1=42710925.2 Bus2=42710926.2 switch=y r1=0.001 x1=0.001 r0=0.001 x0=0.001 Length=0.001 units=km
New Line.5445303:P5445303-2 phases=1 Bus1=42711829.2 Bus2=42711821.2 switch=y r1=0.001 x1=0.001 r0=0.001 x0=0.001 Length=0.001 units=km
New Line.5474265:P5474265-1 phases=1 Bus1=42734633.3 Bus2=42734634.3 switch=y r1=0.001 x1=0.001 r0=0.001 x0=0.001 Length=0.001 units=km
New Line.5475435:P5475435-2 phases=1 Bus1=42735124.1 Bus2=42735116.1 switch=y r1=0.001 x1=0.001 r0=0.001 x0=0.001 Length=0.001 units=km
New Line.5475443:P5475443-1 phases=1 Bus1=42735338.3 Bus2=42735337.3 switch=y r1=0.001 x1=0.001 r0=0.001 x0=0.001 Length=0.001 units=km
New Line.5475437:P5475437-2 phases=1 Bus1=42735510.1 Bus2=42735502.1 switch=y r1=0.001 x1=0.001 r0=0.001 x0=0.001 Length=0.001 units=km
New Line.5398458:J458-4 phases=3 Bus1=42711979.1.2.3 Bus2=42711980.1.2.3 switch=y r1=0.001 x1=0.001 r0=0.001 x0=0.001 Length=0.001 units=km
New Line.5481374:J374-2 phases=1 Bus1=58786840.1 Bus2=58786839.1 switch=y r1=0.001 x1=0.001 r0=0.001 x0=0.001 Length=0.001 units=km
New Line.5481374:J374-1 phases=1 Bus1=58786824.1 Bus2=58786823.1 switch=y r1=0.001 x1=0.001 r0=0.001 x0=0.001 Length=0.001 units=km
New Line.5735126:P5735126-2 phases=2 Bus1=287568317.1.2 Bus2=287568309.1.2 switch=y r1=0.001 x1=0.001 r0=0.001 x0=0.001 Length=0.001 units=km
New Line.5398458:J458-3 phases=3 Bus1=42711972.1.2.3 Bus2=42711971.1.2.3 switch=y r1=0.001 x1=0.001 r0=0.001 x0=0.001 Length=0.001 units=km
New Line.5735126:P5735126-1 phases=2 Bus1=287568309.1.2 Bus2=287568308.1.2 switch=y r1=0.001 x1=0.001 r0=0.001 x0=0.001 Length=0.001 units=km
New Line.5761438:P5761438-2 phases=2 Bus1=304730295.2.3 Bus2=304730287.2.3 switch=y r1=0.001 x1=0.001 r0=0.001 x0=0.001 Length=0.001 units=km
New Line.5786106:P5786106-2 phases=2 Bus1=309071749.1.2 Bus2=309071741.1.2 switch=y r1=0.001 x1=0.001 r0=0.001 x0=0.001 Length=0.001 units=km
New Line.5786110:P5786110-1 phases=2 Bus1=309072066.1.2 Bus2=309072067.1.2 switch=y r1=0.001 x1=0.001 r0=0.001 x0=0.001 Length=0.001 units=km
New Line.5398458:J458-2 phases=3 Bus1=42711988.1.2.3 Bus2=42711987.1.2.3 switch=y r1=0.001 x1=0.001 r0=0.001 x0=0.001 Length=0.001 units=km
New Line.5407159:P5407159-2 phases=1 Bus1=42737736.3 Bus2=42737744.3 switch=y r1=0.001 x1=0.001 r0=0.001 x0=0.001 Length=0.001 units=km
New Line.5486277:P5486277-1 phases=1 Bus1=42737961.1 Bus2=42737962.1 switch=y r1=0.001 x1=0.001 r0=0.001 x0=0.001 Length=0.001 units=km
New Line.5486279:P5486279-1 phases=1 Bus1=42760492.2 Bus2=42760491.2 switch=y r1=0.001 x1=0.001 r0=0.001 x0=0.001 Length=0.001 units=km
New Line.5486166:P5486166-1 phases=1 Bus1=42761359.2 Bus2=42761358.2 switch=y r1=0.001 x1=0.001 r0=0.001 x0=0.001 Length=0.001 units=km
New Line.5475438:P5475438-1 phases=1 Bus1=42786362.2 Bus2=42786361.2 switch=y r1=0.001 x1=0.001 r0=0.001 x0=0.001 Length=0.001 units=km
New Line.5407067:B5407067-2 phases=1 Bus1=58757960.3 Bus2=58757968.3 switch=y r1=0.001 x1=0.001 r0=0.001 x0=0.001 Length=0.001 units=km
New Line.5407073:B5407073-2 phases=1 Bus1=58758400.1 Bus2=58758392.1 switch=y r1=0.001 x1=0.001 r0=0.001 x0=0.001 Length=0.001 units=km
New Line.5445146:B5445146-2 phases=1 Bus1=58768068.3 Bus2=58768060.3 switch=y r1=0.001 x1=0.001 r0=0.001 x0=0.001 Length=0.001 units=km
New Line.5422536:B5422536-2 phases=1 Bus1=58770405.1 Bus2=58770397.1 switch=y r1=0.001 x1=0.001 r0=0.001 x0=0.001 Length=0.001 units=km
New Line.5772979:P5772979-2 phases=2 Bus1=269096470.1.2 Bus2=269096478.1.2 switch=y r1=0.001 x1=0.001 r0=0.001 x0=0.001 Length=0.001 units=km
New Line.5407154:P5407154-2 phases=1 Bus1=42710926.2 Bus2=42710934.2 switch=y r1=0.001 x1=0.001 r0=0.001 x0=0.001 Length=0.001 units=km
New Line.5445305:P5445305-2 phases=1 Bus1=42711685.1 Bus2=42711677.1 switch=y r1=0.001 x1=0.001 r0=0.001 x0=0.001 Length=0.001 units=km
New Line.5445306:P5445306-1 phases=1 Bus1=42711748.2 Bus2=42711749.2 switch=y r1=0.001 x1=0.001 r0=0.001 x0=0.001 Length=0.001 units=km
New Line.5474265:P5474265-2 phases=1 Bus1=42734634.3 Bus2=42734642.3 switch=y r1=0.001 x1=0.001 r0=0.001 x0=0.001 Length=0.001 units=km
New Line.5475435:P5475435-1 phases=1 Bus1=42735116.1 Bus2=42735115.1 switch=y r1=0.001 x1=0.001 r0=0.001 x0=0.001 Length=0.001 units=km
New Line.5475437:P5475437-1 phases=1 Bus1=42735502.1 Bus2=42735501.1 switch=y r1=0.001 x1=0.001 r0=0.001 x0=0.001 Length=0.001 units=km
New Line.5486277:P5486277-2 phases=1 Bus1=42737962.1 Bus2=42737970.1 switch=y r1=0.001 x1=0.001 r0=0.001 x0=0.001 Length=0.001 units=km
New Line.5486282:P5486282-1 phases=1 Bus1=42761604.2 Bus2=42761605.2 switch=y r1=0.001 x1=0.001 r0=0.001 x0=0.001 Length=0.001 units=km
New Line.5486283:P5486283-1 phases=1 Bus1=42761768.3 Bus2=42761769.3 switch=y r1=0.001 x1=0.001 r0=0.001 x0=0.001 Length=0.001 units=km
New Line.5407073:B5407073-1 phases=1 Bus1=58758392.1 Bus2=58758391.1 switch=y r1=0.001 x1=0.001 r0=0.001 x0=0.001 Length=0.001 units=km
New Line.5422532:B5422532-1 phases=1 Bus1=58758607.1 Bus2=58758608.1 switch=y r1=0.001 x1=0.001 r0=0.001 x0=0.001 Length=0.001 units=km
New Line.5445150:B5445150-1 phases=1 Bus1=58767699.3 Bus2=58767700.3 switch=y r1=0.001 x1=0.001 r0=0.001 x0=0.001 Length=0.001 units=km
New Line.5445146:B5445146-1 phases=1 Bus1=58768060.3 Bus2=58768059.3 switch=y r1=0.001 x1=0.001 r0=0.001 x0=0.001 Length=0.001 units=km
New Line.5422533:B5422533-2 phases=1 Bus1=58769891.1 Bus2=58769883.1 switch=y r1=0.001 x1=0.001 r0=0.001 x0=0.001 Length=0.001 units=km
New Line.5422536:B5422536-1 phases=1 Bus1=58770397.1 Bus2=58770396.1 switch=y r1=0.001 x1=0.001 r0=0.001 x0=0.001 Length=0.001 units=km
New Line.5486252:P5486252-1 phases=1 Bus1=58787322.2 Bus2=58787323.2 switch=y r1=0.001 x1=0.001 r0=0.001 x0=0.001 Length=0.001 units=km
New Line.5445305:P5445305-1 phases=1 Bus1=42711677.1 Bus2=42711676.1 switch=y r1=0.001 x1=0.001 r0=0.001 x0=0.001 Length=0.001 units=km
New Line.5445306:P5445306-2 phases=1 Bus1=42711749.2 Bus2=42711757.2 switch=y r1=0.001 x1=0.001 r0=0.001 x0=0.001 Length=0.001 units=km
New Line.5444657:P5444657-2 phases=1 Bus1=42735582.3 Bus2=42735574.3 switch=y r1=0.001 x1=0.001 r0=0.001 x0=0.001 Length=0.001 units=km
New Line.5486276:P5486276-2 phases=1 Bus1=42760418.1 Bus2=42760410.1 switch=y r1=0.001 x1=0.001 r0=0.001 x0=0.001 Length=0.001 units=km
New Line.5486282:P5486282-2 phases=1 Bus1=42761605.2 Bus2=42761613.2 switch=y r1=0.001 x1=0.001 r0=0.001 x0=0.001 Length=0.001 units=km
New Line.5486283:P5486283-2 phases=1 Bus1=42761769.3 Bus2=42761777.3 switch=y r1=0.001 x1=0.001 r0=0.001 x0=0.001 Length=0.001 units=km
New Line.5407068:B5407068-2 phases=1 Bus1=58757896.3 Bus2=58757888.3 switch=y r1=0.001 x1=0.001 r0=0.001 x0=0.001 Length=0.001 units=km
New Line.5422533:B5422533-1 phases=1 Bus1=58769883.1 Bus2=58769882.1 switch=y r1=0.001 x1=0.001 r0=0.001 x0=0.001 Length=0.001 units=km
New Line.5486252:P5486252-2 phases=1 Bus1=58787323.2 Bus2=58787331.2 switch=y r1=0.001 x1=0.001 r0=0.001 x0=0.001 Length=0.001 units=km
New Line.5444657:P5444657-1 phases=1 Bus1=42735574.3 Bus2=42735573.3 switch=y r1=0.001 x1=0.001 r0=0.001 x0=0.001 Length=0.001 units=km
New Line.5407068:B5407068-1 phases=1 Bus1=58757888.3 Bus2=58757887.3 switch=y r1=0.001 x1=0.001 r0=0.001 x0=0.001 Length=0.001 units=km
New Line.5407074:B5407074-2 phases=1 Bus1=58758328.1 Bus2=58758320.1 switch=y r1=0.001 x1=0.001 r0=0.001 x0=0.001 Length=0.001 units=km
...

! Loads
New Load.5407161 Bus1=-99999942737592.3.0 phases=1 kV=0.0400011 kW=0 kvar=0 model=1
New Load.5407731 Bus1=-999999156967699.2.0 phases=1 kV=0.0400011 kW=32.047 kvar=16.882 model=1
New Load.5734993_0 Bus1=-999999264805099.1.0 phases=1 kV=0.0400011 kW=0.188 kvar=0.099 model=1
New Load.5734993_1 Bus1=-999999264805099.2.0 phases=1 kV=0.0400011 kW=0.188 kvar=0.099 model=1
New Load.5439929 Bus1=-99999942738116.1.0 phases=1 kV=0.0400011 kW=1.412 kvar=0.744 model=1
New Load.5735127_0 Bus1=-999999287568377.1.0 phases=1 kV=0.0400011 kW=0 kvar=0 model=1
New Load.5735127_1 Bus1=-999999287568377.2.0 phases=1 kV=0.0400011 kW=0 kvar=0 model=1
New Load.5407069 Bus1=-99999958757816.3.0 phases=1 kV=0.0400011 kW=71.645 kvar=37.742 model=1
New Load.5486278 Bus1=-99999942738044.1.0 phases=1 kV=0.0400011 kW=19.362 kvar=8.439 model=1
New Load.5477566 Bus1=-99999942786290.3.0 phases=1 kV=0.0400011 kW=31.391 kvar=13.683 model=1
New Load.5475436 Bus1=-99999942735420.1.0 phases=1 kV=0.0400011 kW=23.252 kvar=10.135 model=1
New Load.5477558 Bus1=-99999942737160.1.0 phases=1 kV=0.0400011 kW=37.158 kvar=16.197 model=1
New Load.5407733 Bus1=-999999156967490.1.0 phases=1 kV=0.0400011 kW=35.741 kvar=18.827 model=1
New Load.5422532 Bus1=-99999958758608.1.0 phases=1 kV=0.0400011 kW=29.289 kvar=12.767 model=1
New Load.5445305 Bus1=-99999942711677.1.0 phases=1 kV=0.0400011 kW=33.329 kvar=14.528 model=1
New Load.5486252 Bus1=-99999958787323.2.0 phases=1 kV=0.0400011 kW=22.529 kvar=9.82 model=1
New Load.5445306 Bus1=-99999942711749.2.0 phases=1 kV=0.0400011 kW=29.529 kvar=15.555 model=1
New Load.5422533 Bus1=-99999958769883.1.0 phases=1 kV=0.0400011 kW=15.616 kvar=8.226 model=1
New Load.5486282 Bus1=-99999942761605.2.0 phases=1 kV=0.0400011 kW=11.188 kvar=5.893 model=1
New Load.5445150 Bus1=-99999958767700.3.0 phases=1 kV=0.0400011 kW=27.412 kvar=14.44 model=1
New Load.5486283 Bus1=-99999942761769.3.0 phases=1 kV=0.0400011 kW=18.267 kvar=7.963 model=1
New Load.5475442 Bus1=-99999942735034.2.0 phases=1 kV=0.0400011 kW=14.2 kvar=6.19 model=1
New Load.5447282 Bus1=-99999958785312.3.0 phases=1 kV=0.0400011 kW=28.035 kvar=14.768 model=1
New Load.5481739 Bus1=-99999942736862.1.0 phases=1 kV=0.0400011 kW=25.898 kvar=11.289 model=1
New Load.5407066 Bus1=-99999958758032.3.0 phases=1 kV=0.0400011 kW=41.472 kvar=18.077 model=1
New Load.5447285 Bus1=-99999958785923.3.0 phases=1 kV=0.0400011 kW=0 kvar=0 model=1
New Load.5477561 Bus1=-99999942737304.1.0 phases=1 kV=0.0400011 kW=0 kvar=0 model=1
New Load.5481377 Bus1=-99999958786995.1.0 phases=1 kV=0.0400011 kW=19.394 kvar=10.216 model=1
New Load.5447283 Bus1=-99999958786005.3.0 phases=1 kV=0.0400011 kW=22.529 kvar=9.82 model=1
New Load.5445147 Bus1=-99999958767988.3.0 phases=1 kV=0.0400011 kW=31.72 kvar=13.826 model=1
New Load.5407074 Bus1=-99999958758320.1.0 phases=1 kV=0.0400011 kW=9.511 kvar=4.146 model=1
New Load.5422537 Bus1=-99999958770469.1.0 phases=1 kV=0.0400011 kW=48.017 kvar=20.931 model=1
New Load.5735126_0 Bus1=-999999287568309.1.0 phases=1 kV=0.0400011 kW=0 kvar=0 model=1
New Load.5735126_1 Bus1=-999999287568309.2.0 phases=1 kV=0.0400011 kW=0 kvar=0 model=1
New Load.5407162 Bus1=-99999942711142.3.0 phases=1 kV=0.0400011 kW=39.694 kvar=20.91 model=1
New Load.5374776 Bus1=-99999958832166.3.0 phases=1 kV=0.0800023 kW=3.059 kvar=1.612 model=1
New Load.5407065 Bus1=-99999958758104.3.0 phases=1 kV=0.0800023 kW=40.644 kvar=17.715 model=1
New Load.5407586 Bus1=-99999958758176.2.0 phases=1 kV=0.0400011 kW=20.706 kvar=10.908 model=1
New Load.5445309 Bus1=-99999942734118.1.0 phases=1 kV=0.0400011 kW=34.633 kvar=15.096 model=1
New Load.5445308 Bus1=-99999942712194.2.0 phases=1 kV=0.0400011 kW=9.822 kvar=4.281 model=1
New Load.5486253 Bus1=-99999958787415.2.0 phases=1 kV=0.0400011 kW=9.504 kvar=4.142 model=1
New Load.5486256 Bus1=-99999958787681.2.0 phases=1 kV=0.0400011 kW=24.244 kvar=10.567 model=1
New Load.5487885 Bus1=-99999942761066.1.0 phases=1 kV=0.0400011 kW=2.378 kvar=1.037 model=1
New Load.5486173 Bus1=-99999942762087.3.0 phases=1 kV=0.0400011 kW=21.589 kvar=9.411 model=1
New Load.5444468 Bus1=-99999958787937.2.0 phases=1 kV=0.0400011 kW=41.887 kvar=18.259 model=1
New Load.5486254 Bus1=-99999958787507.2.0 phases=1 kV=0.0400011 kW=18.727 kvar=9.865 model=1
New Load.5407152 Bus1=-99999942710782.2.0 phases=1 kV=0.0400011 kW=33.106 kvar=17.44 model=1
New Load.5481378 Bus1=-99999958787067.1.0 phases=1 kV=0.0400011 kW=28.919 kvar=12.606 model=1
New Load.5407158 Bus1=-99999942737808.3.0 phases=1 kV=0.0400011 kW=37 kvar=19.491 model=1
New Load.5407075 Bus1=-99999958758248.1.0 phases=1 kV=0.0400011 kW=35.884 kvar=15.641 model=1
New Load.5486284 Bus1=-99999942761687.2.0 phases=1 kV=0.0400011 kW=20.989 kvar=9.149 model=1
New Load.5445312 Bus1=-99999942733974.1.0 phases=1 kV=0.0400011 kW=19.322 kvar=8.422 model=1
New Load.5407736 Bus1=-99999942711629.1.0 phases=1 kV=0.0400011 kW=23.2 kvar=12.221 model=1
New Load.5487884 Bus1=-99999942760984.1.0 phases=1 kV=0.0400011 kW=8.691 kvar=3.788 model=1
New Load.5477565 Bus1=-99999942786218.3.0 phases=1 kV=0.0400011 kW=17.716 kvar=7.723 model=1
New Load.5486255 Bus1=-99999958787599.2.0 phases=1 kV=0.0400011 kW=30.66 kvar=13.364 model=1
New Load.5761838_0 Bus1=-999999295602834.3.0 phases=1 kV=0.0400011 kW=0 kvar=0 model=1
New Load.5761838_1 Bus1=-999999295602834.1.0 phases=1 kV=0.0400011 kW=0 kvar=0 model=1
New Load.5761841_0 Bus1=-999999295358330.1.0 phases=1 kV=0.0400011 kW=0 kvar=0 model=1
New Load.5761841_1 Bus1=-999999295358330.2.0 phases=1 kV=0.0400011 kW=0 kvar=0 model=1
...