networks/new/results/CKT_4799_01085_cyme_loadflow_results.csv
CKT_KEY,NODE_ID,BASE_VOLTAGE,PGEN,QGEN,PGEN_A,PGEN_B,PGEN_C,QGEN_A,QGEN_B,QGEN_C,PCAP,QCAP,PLOAD,QLOAD,PLOAD_A,PLOAD_B,PLOAD_C,QLOAD_A,QLOAD_B,QLOAD_C,VA,VA_ANGLE,VB,VB_ANGLE,VC,VC_ANGLE,IA,IA_ANGLE,IB,IB_ANGLE,IC,IC_ANGLE
CKT_4799_01085,BUS_606,12.0000000,0.0000000,0.0000000,,,,,,,0.0000000,0.0000000,0.0000000,0.0000000,,,,,,,0.8255931,-13.5739985,,,,,4.4344966,-37.1249922,,,,
CKT_4799_01085,BUS_549,12.4700000,0.0000000,0.0000000,,,,,,,0.0000000,0.0000000,0.0000000,0.0000000,,,,,,,0.7976853,-13.2929932,0.8349332,-132.0173772,0.8270023,105.8649647,19.9553823,-48.5146795,15.1500079,-166.4997104,11.3584619,99.4979854
CKT_4799_01085,BUS_69,12.4700000,0.0000000,0.0000000,,,,,,,0.0000000,0.0000000,0.0000000,0.0000000,,,,,,,0.9364272,-3.3294403,0.9493053,-123.0762753,,,0.0000000,0.0000000,0.0000000,0.0000000,,
CKT_4799_01085,BUS_711,12.0000000,0.0000000,0.0000000,,,,,,,0.0000000,0.0000000,0.0000000,0.0000000,,,,,,,0.9731047,-3.3292560,0.9864895,-123.0762229,,,0.0000000,0.0000000,0.0000000,0.0000000,,
CKT_4799_01085,BUS_565,2078.4019398,0.0000000,0.0000000,,,,,,,0.0000000,0.0000000,0.0161490,0.0070389,,,,,,,0.8244456,-13.6703657,,,,,0.0178068,-37.2214477,,,,
CKT_4799_01085,BUS_774,12.0000000,0.0000000,0.0000000,,,,,,,0.0000000,0.0000000,0.0000000,0.0000000,,,,,,,0.8252715,-13.5983100,,,,,22.8694316,-39.0266455,,,,
CKT_4799_01085,BUS_696,0.0692840,0.0000000,0.0000000,,,,,,,0.0000000,0.0000000,0.0000000,0.0000000,,,,,,,,,,,0.8618299,106.1185197,,,,,0.0000000,0.0000000
CKT_4799_01085,BUS_663,0.0000000,0.0000000,0.0000000,,,,,,,0.0000000,0.0000000,0.0000000,0.0000000,,,,,,,,,,,,,,,,,,
CKT_4799_01085,BUS_682,12.4700000,0.0000000,0.0000000,,,,,,,0.0000000,0.0000000,0.0000000,0.0000000,,,,,,,0.9364271,-3.3294708,0.9493048,-123.0762839,0.9438000,116.3361589,0.0090674,-0.9857742,0.0090674,179.0142242,0.0000000,0.0000000
CKT_4799_01085,BUS_479,0.0692840,0.0000000,0.0000000,,,,,,,0.0000000,0.0000000,0.0000000,0.0000000,,,,,,,,,0.8818751,-130.9403621,0.8688659,106.8094123,,,0.0000000,0.0000000,0.0000000,0.0000000
CKT_4799_01085,BUS_1265,12.0000000,0.0000000,0.0000000,,,,,,,0.0000000,0.0000000,0.0000000,0.0000000,,,,,,,,,,,0.8548227,105.5200494,,,,,13.6733399,77.7402218
CKT_4799_01085,BUS_1058,12.0000000,0.0000000,0.0000000,,,,,,,0.0000000,0.0000000,0.0000000,0.0000000,,,,,,,0.8250022,-13.6199509,,,,,8.4984768,-39.6133880,,,,
CKT_4799_01085,BUS_1202,12.4700000,0.0000000,0.0000000,,,,,,,0.0000000,0.0000000,0.0000000,0.0000000,,,,,,,0.9364273,-3.3294233,0.9493056,-123.0762705,,,0.0000000,0.0000000,0.0000000,0.0000000,,
CKT_4799_01085,BUS_1289,0.0692840,0.0000000,0.0000000,,,,,,,0.0000000,0.0000000,0.0255809,0.0111500,,,,,,,,,,,0.8512633,105.3915048,,,,,819.5036649,81.8404261
CKT_4799_01085,BUS_458,0.0692840,0.0000000,0.0000000,,,,,,,0.0000000,0.0000000,0.0095040,0.0041420,,,,,,,,,0.8754927,-131.5016517,,,,,296.0350660,-155.0499623,,
CKT_4799_01085,BUS_467,2078.4019398,0.0000000,0.0000000,,,,,,,0.0000000,0.0000000,0.0086910,0.0037880,,,,,,,0.8243085,-13.6819208,,,,,0.0095847,-37.2317894,,,,
CKT_4799_01085,BUS_1277,12.0000000,0.0000000,0.0000000,,,,,,,0.0000000,0.0000000,0.0000000,0.0000000,,,,,,,,,0.8624515,-132.4351032,,,,,2.5925854,-155.9916440,,
CKT_4799_01085,BUS_1060,0.0692840,0.0000000,0.0000000,,,,,,,0.0000000,0.0000000,0.0098220,0.0042811,,,,,,,,,0.8652746,-132.1744515,,,,,309.5597700,-155.7250014,,
CKT_4799_01085,BUS_1166,0.0692840,0.0000000,0.0000000,,,,,,,0.0000000,0.0000000,0.0000470,0.0000250,,,,,,,0.9730423,-3.3302841,0.9864913,-123.0761931,,,1.3677152,-31.3394520,0.0000000,0.0000000,,
CKT_4799_01085,BUS_1216,12.4700000,0.0000000,0.0000000,,,,,,,0.0000000,0.0000000,0.0000000,0.0000000,,,,,,,0.9364279,-3.3292560,0.9493083,-123.0762229,,,0.0000000,0.0000000,0.0000000,0.0000000,,
CKT_4799_01085,BUS_290,12.0000000,0.0000000,0.0000000,,,,,,,0.0000000,0.0000000,0.0000000,0.0000000,,,,,,,0.8243351,-13.6796826,,,,,6.0957960,-37.2319867,,,,
CKT_4799_01085,BUS_1044,12.0000000,0.0000000,0.0000000,,,,,,,0.0000000,0.0000000,0.0000000,0.0000000,,,,,,,0.8281299,-13.4038329,,,,,0.2411426,-41.1909957,,,,
CKT_4799_01085,BUS_1105,12.4700000,0.0000000,0.0000000,,,,,,,0.0000000,0.0000000,0.0000000,0.0000000,,,,,,,0.9364279,-3.3292560,0.9493083,-123.0762229,,,0.0000000,0.0000000,0.0000000,0.0000000,,
CKT_4799_01085,BUS_121,12.4700000,0.0000000,0.0000000,,,,,,,0.0000000,0.0000000,0.0000000,0.0000000,,,,,,,0.7943453,-13.5847715,0.8318888,-132.2756431,0.8241309,105.6414598,23.1600485,-38.7628422,26.8675078,-156.2851567,18.6698851,81.9629872
CKT_4799_01085,BUS_396,12.4700000,0.0000000,0.0000000,,,,,,,0.0000000,0.0000000,0.0000000,0.0000000,,,,,,,,,,,0.8293471,106.1185197,,,,,20.3447282,82.4825380
CKT_4799_01085,BUS_1021,0.0692840,0.0000000,0.0000000,,,,,,,0.0000000,0.0000000,0.0142890,0.0062289,,,,,,,0.8229293,-13.6976703,,,,,473.5284367,-37.2512249,,,,
CKT_4799_01085,BUS_1078,12.4700000,0.0000000,0.0000000,,,,,,,0.0000000,0.0000000,0.0000000,0.0000000,,,,,,,0.7947706,-13.5242852,0.8309816,-132.2976949,0.8250918,105.5986428,0.0000000,0.0000000,0.0000000,0.0000000,0.0000000,0.0000000
CKT_4799_01085,BUS_1121,12.0000000,0.0000000,0.0000000,,,,,,,0.0000000,0.0000000,0.0000000,0.0000000,,,,,,,,,,,0.8543838,105.4774338,,,,,10.2564252,81.9190290
CKT_4799_01085,BUS_251,12.4700000,0.0000000,0.0000000,,,,,,,0.0000000,0.0000000,0.0000000,0.0000000,,,,,,,0.9364273,-3.3294233,0.9493056,-123.0762705,,,0.0000000,0.0000000,0.0000000,0.0000000,,
CKT_4799_01085,BUS_375,12.4700000,0.0000000,0.0000000,,,,,,,0.0000000,0.0000000,0.0000000,0.0000000,,,,,,,0.7937135,-13.6404618,,,,,14.7197868,-37.2259602,,,,
CKT_4799_01085,BUS_1082,0.0692840,0.0000000,0.0000000,,,,,,,0.0000000,0.0000000,0.0333290,0.0145278,,,,,,,0.8246729,-13.5355441,,,,,1102.1533613,-37.0874611,,,,
CKT_4799_01085,BUS_1037,12.4700000,0.0000000,0.0000000,,,,,,,0.0000000,0.0000000,0.0000000,0.0000000,,,,,,,0.7970850,-13.3556300,0.8343783,-132.0724163,0.8261380,105.8092669,0.0000000,0.0000000,0.0000000,0.0000000,0.0000000,0.0000000
CKT_4799_01085,BUS_187,12.0000000,0.0000000,0.0000000,,,,,,,0.0000000,0.0000000,0.0000000,0.0000000,,,,,,,0.9731038,-3.3294715,0.9864859,-123.0762841,,,0.0000000,0.0000000,0.0000000,0.0000000,,
CKT_4799_01085,BUS_307,12.4700000,0.0000000,0.0000000,,,,,,,0.0000000,0.0000000,0.0000000,0.0000000,,,,,,,,,0.8321442,-132.2542543,,,,,33.4838084,-156.5998441,,
CKT_4799_01085,BUS_199,12.4700000,0.0000000,0.0000000,,,,,,,0.0000000,0.0000000,0.0000000,0.0000000,,,,,,,0.9364273,-3.3294233,0.9493056,-123.0762705,,,0.0000000,0.0000000,0.0000000,0.0000000,,
CKT_4799_01085,BUS_962,12.4700000,0.0000000,0.0000000,,,,,,,0.0000000,0.0000000,0.0000000,0.0000000,,,,,,,0.9364279,-3.3292560,0.9493083,-123.0762229,0.9438000,116.3361589,0.0000000,0.0000000,0.0000000,0.0000000,0.0000000,0.0000000
CKT_4799_01085,BUS_932,12.0000000,0.0000000,0.0000000,,,,,,,0.0000000,0.0000000,0.0000000,0.0000000,,,,,,,,,0.8674227,-132.0380512,,,,,20.1364709,-159.8746667,,
CKT_4799_01085,BUS_852,12.0000000,0.0000000,0.0000000,,,,,,,0.0000000,0.0000000,0.0000000,0.0000000,,,,,,,0.8246926,-13.6495540,,,,,11.9139301,-37.2336732,,,,
CKT_4799_01085,BUS_869,0.0692840,0.0000000,0.0000000,,,,,,,0.0000000,0.0000000,0.0009650,0.0005080,,,,,,,,,0.9858951,-93.4766922,,,,,27.6529114,-121.2401321,,
CKT_4799_01085,BUS_93,12.4700000,0.0000000,0.0000000,,,,,,,0.0000000,0.0000000,0.0000000,0.0000000,,,,,,,0.7957902,-13.4772755,0.8328014,-132.1983736,0.8258039,105.7084756,19.1292447,-41.2633215,19.1380621,-161.2332987,19.1423367,78.7288358
CKT_4799_01085,BUS_50,2078.4019398,0.0000000,0.0000000,,,,,,,0.0000000,0.0000000,0.0298940,0.0157468,,,,,,,0.8276300,-13.4427820,,,,,0.0340216,-41.2209947,,,,
CKT_4799_01085,BUS_70,2078.4019398,0.0000000,0.0000000,,,,,,,0.0000000,0.0000000,0.0349288,0.0152251,,,,,,,0.8277080,-13.3127945,,,,,0.0383629,-36.8647054,,,,
CKT_4799_01085,BUS_893,12.0000000,0.0000000,0.0000000,,,,,,,0.0000000,0.0000000,0.0000000,0.0000000,,,,,,,0.8274106,-13.3376989,,,,,12.5857383,-36.9666342,,,,
CKT_4799_01085,BUS_35,12.4700000,0.0000000,0.0000000,,,,,,,0.0000000,0.0000000,0.0000000,0.0000000,,,,,,,0.7956896,-13.5053354,,,,,6.6126405,-37.1212470,,,,
CKT_4799_01085,BUS_533,12.4700000,0.0000000,0.0000000,,,,,,,0.0000000,0.0000000,0.0000000,0.0000000,,,,,,,0.7947438,-13.5251095,0.8309279,-132.3003470,0.8250772,105.5952812,4.4806009,-64.4314714,10.1787910,-170.7566625,7.7887566,104.7551509
CKT_4799_01085,BUS_602,12.0000000,0.0000000,0.0000000,,,,,,,0.0000000,0.0000000,0.0000000,0.0000000,,,,,,,,,,,0.8561879,105.6233969,,,,,5.7728217,82.0714046
CKT_4799_01085,BUS_552,12.0000000,0.0000000,0.0000000,,,,,,,0.0000000,0.0000000,0.0000000,0.0000000,,,,,,,,,,,0.8563592,105.6373052,,,,,3.6764529,82.0220176
CKT_4799_01085,BUS_622,12.4700000,0.0000000,0.0000000,,,,,,,0.0000000,0.0000000,0.0000000,0.0000000,,,,,,,,,0.8457226,-131.2800530,,,,,32.0604615,-155.5586513,,
CKT_4799_01085,BUS_724,12.4700000,0.0000000,0.0000000,,,,,,,0.0000000,0.0000000,0.0000000,0.0000000,,,,,,,,,0.8316135,-132.2987712,,,,,6.6409349,-155.8713811,,
CKT_4799_01085,BUS_641,2078.4019398,0.0000000,0.0000000,,,,,,,0.0000000,0.0000000,0.0337441,0.0147081,,,,,,,,,,,0.8616763,106.1061553,,,,,0.0356005,82.5552194
CKT_4799_01085,BUS_781,12.4700000,0.0000000,0.0000000,,,,,,,0.0000000,0.0000000,0.0000000,0.0000000,,,,,,,0.9364279,-3.3292560,0.9493083,-123.0762229,0.9438000,116.3361589,0.0000000,0.0000000,0.0000000,0.0000000,0.0000000,0.0000000
CKT_4799_01085,BUS_483,12.0000000,0.0000000,0.0000000,,,,,,,0.0000000,0.0000000,0.0000000,0.0000000,,,,,,,,,,,0.8620261,106.1353047,,,,,4.1277985,82.5142577
CKT_4799_01085,BUS_446,12.0000000,0.0000000,0.0000000,,,,,,,0.0000000,0.0000000,0.0000000,0.0000000,,,,,,,0.8247988,-13.6406209,,,,,11.9139301,-37.2336732,,,,
CKT_4799_01085,BUS_499,12.4700000,0.0000000,0.0000000,,,,,,,0.0000000,0.0000000,0.0000000,0.0000000,,,,,,,0.7947706,-13.5242852,0.8309816,-132.2976949,0.8250918,105.5986428,7.9845395,-54.0210103,13.8121791,-168.2378761,11.2037108,96.4841429
CKT_4799_01085,BUS_1247,12.4700000,0.0000000,0.0000000,,,,,,,0.0000000,0.0000000,0.0000000,0.0000000,,,,,,,0.7949658,-13.5324938,0.8324362,-132.2305543,0.8244343,105.6669167,42.8191166,-38.0520948,35.9935834,-156.1783020,18.6698851,81.9629872
CKT_4799_01085,BUS_1292,12.4700000,0.0000000,0.0000000,,,,,,,0.0000000,0.0000000,0.0000000,0.0000000,,,,,,,0.9364272,-3.3294403,0.9493053,-123.0762753,,,0.0000000,0.0000000,0.0000000,0.0000000,,
CKT_4799_01085,BUS_1251,12.0000000,0.0000000,0.0000000,,,,,,,0.0000000,0.0000000,0.0000000,0.0000000,,,,,,,,,0.8754891,-131.5406127,,,,,2.5156427,-155.0963855,,
CKT_4799_01085,BUS_142,2078.4019398,0.0000000,0.0000000,,,,,,,0.0000000,0.0000000,0.0146980,0.0064069,,,,,,,0.8247987,-13.6406226,,,,,0.0162001,-37.1932101,,,,
CKT_4799_01085,BUS_455,12.4700000,0.0000000,0.0000000,,,,,,,0.0000000,0.0000000,0.0000000,0.0000000,,,,,,,0.7972258,-13.2506802,,,,,21.7513824,-36.9209920,,,,
CKT_4799_01085,BUS_387,12.0000000,0.0000000,0.0000000,,,,,,,0.0000000,0.0000000,0.0000000,0.0000000,,,,,,,,,,,0.8564030,105.6408519,,,,,9.4412114,82.0729900
CKT_4799_01085,BUS_432,12.0000000,0.0000000,0.0000000,,,,,,,0.0000000,0.0000000,0.0000000,0.0000000,,,,,,,,,,,0.8584369,105.8129208,,,,,9.7897062,77.9980580
CKT_4799_01085,BUS_103,12.0000000,0.0000000,0.0000000,,,,,,,0.0000000,0.0000000,0.0000000,0.0000000,,,,,,,0.8248359,-13.6326719,,,,,22.8694316,-39.0266455,,,,
CKT_4799_01085,BUS_1108,0.0000000,0.0000000,0.0000000,,,,,,,0.0000000,0.0000000,0.0000000,0.0000000,,,,,,,,,,,,,,,,,,
CKT_4799_01085,BUS_176,12.0000000,0.0000000,0.0000000,,,,,,,0.0000000,0.0000000,0.0000000,0.0000000,,,,,,,0.8252715,-13.5983100,,,,,22.8694316,-39.0266455,,,,
CKT_4799_01085,BUS_426,12.4700000,0.0000000,0.0000000,,,,,,,0.0000000,0.0000000,0.0000000,0.0000000,,,,,,,,,0.9493053,-123.0762753,0.9438000,116.3361589,,,0.0000000,0.0000000,0.0000000,0.0000000
CKT_4799_01085,BUS_115,12.4700000,0.0000000,0.0000000,,,,,,,0.0000000,0.0000000,0.0000000,0.0000000,,,,,,,0.9364273,-3.3294233,0.9493056,-123.0762705,,,0.0000000,0.0000000,0.0000000,0.0000000,,
CKT_4799_01085,BUS_1153,12.4700000,0.0000000,0.0000000,,,,,,,0.0000000,0.0000000,0.0000000,0.0000000,,,,,,,0.8048621,-12.7094499,0.8459836,-131.2591579,0.8299909,106.1717133,0.0000000,0.0000000,0.0000000,0.0000000,0.0000000,0.0000000
CKT_4799_01085,BUS_222,12.4700000,0.0000000,0.0000000,,,,,,,0.0000000,0.0000000,0.0000000,0.0000000,,,,,,,,,,,0.8295867,106.1395334,,,,,9.4270505,80.1779789
CKT_4799_01085,BUS_1005,12.4700000,0.0000000,0.0000000,,,,,,,0.0000000,0.0000000,0.0000000,0.0000000,,,,,,,0.7949658,-13.5324938,0.8324362,-132.2305543,0.8244343,105.6669167,31.3757324,-38.5097851,33.4838084,-156.5998441,29.7358521,81.9148536
CKT_4799_01085,BUS_1195,0.0692840,0.0000000,0.0000000,,,,,,,0.0000000,0.0000000,0.0311961,0.0135991,,,,,,,,,,,0.8590776,106.0306942,,,,,990.3176151,82.4772930
CKT_4799_01085,BUS_308,12.0000000,0.0000000,0.0000000,,,,,,,0.0000000,0.0000000,0.0000000,0.0000000,,,,,,,0.8249093,-13.6277592,,,,,3.7063871,-37.2428777,,,,
CKT_4799_01085,BUS_351,12.0000000,0.0000000,0.0000000,,,,,,,0.0000000,0.0000000,0.0000000,0.0000000,,,,,,,,,0.8669989,-132.0672678,,,,,0.0000000,0.0000000,,
CKT_4799_01085,BUS_1095,12.4700000,0.0000000,0.0000000,,,,,,,0.0000000,0.0000000,0.0000000,0.0000000,,,,,,,0.9364271,-3.3294708,0.9493048,-123.0762839,0.9438000,116.3361589,0.0090674,-0.9857742,0.0090674,179.0142242,0.0000000,0.0000000
CKT_4799_01085,BUS_334,12.0000000,0.0000000,0.0000000,,,,,,,0.0000000,0.0000000,0.0000000,0.0000000,,,,,,,,,0.8632343,-132.3741917,,,,,0.0000000,0.0000000,,
CKT_4799_01085,BUS_232,12.4700000,0.0000000,0.0000000,,,,,,,0.0000000,0.0000000,0.0000000,0.0000000,,,,,,,,,0.8301060,-132.4216477,,,,,15.4494540,-156.0219012,,
CKT_4799_01085,BUS_310,12.4700000,0.0000000,0.0000000,,,,,,,0.0000000,0.0000000,0.0000000,0.0000000,,,,,,,,,0.8316322,-132.2959614,,,,,7.1407524,-155.8470469,,
CKT_4799_01085,BUS_955,12.4700000,0.0000000,0.0000000,,,,,,,0.0000000,0.0000000,0.0000000,0.0000000,,,,,,,,,0.9493119,-123.0762553,0.9437983,116.3361282,,,0.0921790,-121.2401321,0.0921790,58.7598663
CKT_4799_01085,BUS_848,12.4700000,0.0000000,0.0000000,,,,,,,0.0000000,0.0000000,0.0000000,0.0000000,,,,,,,0.8048275,-12.7124397,0.8457363,-131.2789546,0.8297607,106.1530122,0.0000000,0.0000000,32.0604615,-155.5586513,0.0000000,0.0000000
CKT_4799_01085,BUS_986,12.4700000,0.0000000,0.0000000,,,,,,,0.0000000,0.0000000,0.0000000,0.0000000,,,,,,,0.7939328,-13.6212878,0.8317681,-132.2858621,0.8242135,105.6483928,19.6629489,-37.2149311,0.0000000,0.0000000,0.0000000,0.0000000
CKT_4799_01085,BUS_817,12.4700000,0.0000000,0.0000000,,,,,,,0.0000000,0.0000000,0.0000000,0.0000000,,,,,,,0.9364272,-3.3294403,0.9493053,-123.0762753,0.9438000,116.3361589,0.0000000,0.0000000,0.0000000,0.0000000,0.0000000,0.0000000
CKT_4799_01085,BUS_927,12.4700000,0.0000000,0.0000000,,,,,,,0.0000000,0.0000000,0.0000000,0.0000000,,,,,,,0.7979118,-13.1911822,0.8462924,-131.2426638,0.8259243,105.7781122,24.4879686,-36.9116527,0.0000000,0.0000000,51.4988762,80.1424766
CKT_4799_01085,BUS_829,12.4700000,0.0000000,0.0000000,,,,,,,0.0000000,0.0000000,0.0000000,0.0000000,,,,,,,0.7980751,-13.2704677,0.8352261,-132.0007761,0.8271104,105.8832167,19.9553823,-48.5146795,21.1630312,-164.6008843,11.3584619,99.4979854
CKT_4799_01085,BUS_870,12.4700000,0.0000000,0.0000000,,,,,,,0.0000000,0.0000000,0.0000000,0.0000000,,,,,,,0.7953242,-13.4978329,0.8318860,-132.2488461,0.8254870,105.6572460,7.9845395,-54.0210103,15.9245860,-167.1425738,11.2037108,96.4841429
CKT_4799_01085,BUS_12,12.4700000,0.0000000,0.0000000,,,,,,,0.0000000,0.0000000,0.0000000,0.0000000,,,,,,,0.7968598,-13.3474382,0.8344108,-132.0491685,0.8266964,105.8305695,4.5818295,-41.1692709,0.0000000,0.0000000,0.0000000,0.0000000
CKT_4799_01085,BUS_805,12.4700000,0.0000000,0.0000000,,,,,,,0.0000000,0.0000000,0.0000000,0.0000000,,,,,,,0.9364271,-3.3294715,0.9493048,-123.0762841,,,0.0000000,0.0000000,0.0000000,0.0000000,,
CKT_4799_01085,BUS_571,2078.4019398,0.0000000,0.0000000,,,,,,,0.0000000,0.0000000,0.0000000,0.0000000,,,,,,,0.8252715,-13.5983100,,,,,0.0000000,0.0000000,,,,
CKT_4799_01085,BUS_705,12.4700000,0.0000000,0.0000000,,,,,,,0.0000000,0.0000000,0.0000000,0.0000000,,,,,,,0.9364271,-3.3294715,0.9493048,-123.0762841,,,0.0000000,0.0000000,0.0000000,0.0000000,,
CKT_4799_01085,BUS_515,12.4700000,0.0000000,0.0000000,,,,,,,0.0000000,0.0000000,0.0000000,0.0000000,,,,,,,0.7957854,-13.4969905,,,,,12.4988967,-39.1058963,,,,
CKT_4799_01085,BUS_717,2078.4019398,0.0000000,0.0000000,,,,,,,0.0000000,0.0000000,0.0375781,0.0163802,,,,,,,,,0.8624513,-132.4351070,,,,,0.0396101,-155.9873322,,
CKT_4799_01085,BUS_567,12.0000000,0.0000000,0.0000000,,,,,,,0.0000000,0.0000000,0.0000000,0.0000000,,,,,,,,,0.8762355,-131.4821564,,,,,25.1535885,-155.7058956,,
CKT_4799_01085,BUS_776,12.4700000,0.0000000,0.0000000,,,,,,,0.0000000,0.0000000,0.0000000,0.0000000,,,,,,,,,,,0.8263159,105.8298533,,,,,15.7018188,78.0173946
CKT_4799_01085,BUS_617,12.4700000,0.0000000,0.0000000,,,,,,,0.0000000,0.0000000,0.0000000,0.0000000,,,,,,,0.7939328,-13.6212878,0.8317681,-132.2858621,0.8242135,105.6483928,0.0000000,0.0000000,9.1262599,-155.8637227,0.0000000,0.0000000
CKT_4799_01085,BUS_694,12.4700000,0.0000000,0.0000000,,,,,,,0.0000000,0.0000000,0.0000000,0.0000000,,,,,,,0.7969385,-13.4021913,0.8342915,-132.1057673,0.8268554,105.8049035,26.0904977,-16.3460251,13.2846428,-108.5669526,11.4836348,-164.1955424
CKT_4799_01085,BUS_661,12.4700000,0.0000000,0.0000000,,,,,,,0.0000000,0.0000000,0.0000000,0.0000000,,,,,,,0.9364272,-3.3294403,0.9493053,-123.0762753,,,0.0000000,0.0000000,0.0000000,0.0000000,,
CKT_4799_01085,BUS_477,12.0000000,0.0000000,0.0000000,,,,,,,0.0000000,0.0000000,0.0000000,0.0000000,,,,,,,0.9731037,-3.3294893,0.9864856,-123.0762891,,,0.0000000,0.0000000,0.0000000,0.0000000,,
CKT_4799_01085,BUS_1267,12.4700000,0.0000000,0.0000000,,,,,,,0.0000000,0.0000000,0.0000000,0.0000000,,,,,,,,,,,0.8290645,106.0949112,,,,,8.4609660,82.4331153
CKT_4799_01085,BUS_1174,12.0000000,0.0000000,0.0000000,,,,,,,0.0000000,0.0000000,0.0000000,0.0000000,,,,,,,0.8245293,-13.6563417,,,,,6.0479413,-37.2078770,,,,
CKT_4799_01085,BUS_1200,12.0000000,0.0000000,0.0000000,,,,,,,0.0000000,0.0000000,0.0000000,0.0000000,,,,,,,,,0.8754486,-131.5438234,,,,,0.0000000,0.0000000,,
CKT_4799_01085,BUS_461,12.4700000,0.0000000,0.0000000,,,,,,,0.0000000,0.0000000,0.0000000,0.0000000,,,,,,,0.7941977,-13.5969653,,,,,23.1600485,-38.7628422,,,,
CKT_4799_01085,BUS_1131,12.4700000,0.0000000,0.0000000,,,,,,,0.0000000,0.0000000,0.0000000,0.0000000,,,,,,,0.7948135,-13.3909058,0.8459470,-131.2734817,0.8252595,105.6799602,41.3981471,-38.5813655,0.0000000,0.0000000,29.3237013,79.7020411
CKT_4799_01085,BUS_1275,12.0000000,0.0000000,0.0000000,,,,,,,0.0000000,0.0000000,0.0000000,0.0000000,,,,,,,0.8261009,-13.5325703,0.8650399,-132.2305543,0.8567064,105.6654348,0.6968289,-41.2988771,0.0000000,0.0000000,13.1176633,82.0587041
CKT_4799_01085,BUS_1019,12.0000000,0.0000000,0.0000000,,,,,,,0.0000000,0.0000000,0.0000000,0.0000000,,,,,,,,,0.8672219,-132.0518899,,,,,17.2024869,-159.8842908,,
CKT_4799_01085,BUS_1164,12.0000000,0.0000000,0.0000000,,,,,,,0.0000000,0.0000000,0.0000000,0.0000000,,,,,,,,,,,0.8543800,105.4771259,,,,,6.9405803,81.9147431
CKT_4799_01085,BUS_1218,12.4700000,0.0000000,0.0000000,,,,,,,0.0000000,0.0000000,0.0000000,0.0000000,,,,,,,,,0.8438619,-131.4296567,,,,,32.0604615,-155.5586513,,
CKT_4799_01085,BUS_296,12.4700000,0.0000000,0.0000000,,,,,,,0.0000000,0.0000000,0.0000000,0.0000000,,,,,,,0.7937135,-13.6404618,,,,,14.7197868,-37.2259602,,,,
CKT_4799_01085,BUS_369,12.4700000,0.0000000,0.0000000,,,,,,,0.0000000,0.0000000,0.0000000,0.0000000,,,,,,,0.7982279,-13.2616483,0.8353819,-131.9913359,0.8271528,105.8903665,19.9553823,-48.5146795,21.1630312,-164.6008843,11.3584619,99.4979854
CKT_4799_01085,BUS_1046,12.0000000,0.0000000,0.0000000,,,,,,,0.0000000,0.0000000,0.0000000,0.0000000,,,,,,,,,0.8642039,-132.2960087,,,,,7.1407524,-155.8470469,,
CKT_4799_01085,BUS_1107,12.4700000,0.0000000,0.0000000,,,,,,,0.0000000,0.0000000,0.0000000,0.0000000,,,,,,,0.7948135,-13.3909058,0.8459470,-131.2734817,0.8252595,105.6799602,25.1818412,-37.7349839,0.0000000,0.0000000,0.0000000,0.0000000
CKT_4799_01085,BUS_118,12.4700000,0.0000000,0.0000000,,,,,,,0.0000000,0.0000000,0.0000000,0.0000000,,,,,,,0.8048275,-12.7124397,0.8457363,-131.2789546,0.8297607,106.1530122,4.5582540,-36.2676300,0.0000000,0.0000000,0.0000000,0.0000000
CKT_4799_01085,BUS_123,12.0000000,0.0000000,0.0000000,,,,,,,0.0000000,0.0000000,0.0000000,0.0000000,,,,,,,,,,,0.8561879,105.6233969,,,,,5.7728217,82.0714046
CKT_4799_01085,BUS_394,0.0000000,0.0000000,0.0000000,,,,,,,0.0000000,0.0000000,0.0000000,0.0000000,,,,,,,,,,,,,,,,,,
CKT_4799_01085,BUS_1027,12.0000000,0.0000000,0.0000000,,,,,,,0.0000000,0.0000000,0.0000000,0.0000000,,,,,,,,,,,0.8620267,106.1353598,,,,,4.1277985,82.5142577
CKT_4799_01085,BUS_348,12.0000000,0.0000000,0.0000000,,,,,,,0.0000000,0.0000000,0.0000000,0.0000000,,,,,,,0.8242604,-13.5295999,,,,,8.6452776,-37.0918261,,,,
CKT_4799_01085,BUS_377,12.4700000,0.0000000,0.0000000,,,,,,,0.0000000,0.0000000,0.0000000,0.0000000,,,,,,,0.9364270,-3.3294877,0.9493045,-123.0762886,,,0.0090674,-0.9857742,0.0090674,179.0142242,,
CKT_4799_01085,BUS_1084,0.0692840,0.0000000,0.0000000,,,,,,,0.0000000,0.0000000,0.0000000,0.0000000,,,,,,,0.9785507,27.0242032,,,,,0.0000000,0.0000000,,,,
CKT_4799_01085,CKT_4799_01085,12.4700000,0.0000000,0.0000000,,,,,,,0.0000000,0.0000000,0.0000000,0.0000000,,,,,,,1.0000000,0.0000000,1.0000000,-119.9999989,1.0000000,119.9999989,228.3538349,-34.2049012,195.9919624,-149.6733790,225.4000782,92.0009208
CKT_4799_01085,BUS_185,12.0000000,0.0000000,0.0000000,,,,,,,0.0000000,0.0000000,0.0000000,0.0000000,,,,,,,0.8250022,-13.6199509,,,,,8.4984768,-39.6133880,,,,
CKT_4799_01085,BUS_262,12.4700000,0.0000000,0.0000000,,,,,,,0.0000000,-0.2014669,0.0000000,0.0000000,,,,,,,0.7969532,-13.4024922,0.8343069,-132.1060682,0.8268706,105.8046026,11.0681332,76.5978161,11.5868193,-42.1062398,11.4836348,-164.1955424
CKT_4799_01085,BUS_201,12.4700000,0.0000000,0.0000000,,,,,,,0.0000000,0.0000000,0.0000000,0.0000000,,,,,,,,,0.8460966,-131.2564688,,,,,3.8644509,-159.1400423,,
CKT_4799_01085,BUS_595,12.4700000,0.0000000,0.0000000,,,,,,,0.0000000,0.0000000,0.0000000,0.0000000,,,,,,,0.9364279,-3.3292560,0.9493083,-123.0762229,,,0.0000000,0.0000000,0.0000000,0.0000000,,
CKT_4799_01085,BUS_928,12.0000000,0.0000000,0.0000000,,,,,,,0.0000000,0.0000000,0.0000000,0.0000000,,,,,,,,,,,0.8616763,106.1061576,,,,,0.0000000,0.0000000
CKT_4799_01085,BUS_824,12.4700000,0.0000000,0.0000000,,,,,,,0.0000000,0.0000000,0.0000000,0.0000000,,,,,,,0.7979413,-13.1886276,0.8462961,-131.2424000,0.8259888,105.7831553,63.5816132,-45.3923295,8.7187601,-152.5729308,25.0389059,95.5518767
CKT_4799_01085,BUS_42,12.0000000,0.0000000,0.0000000,,,,,,,0.0000000,0.0000000,0.0000000,0.0000000,,,,,,,,,,,0.8585718,105.8223174,,,,,9.7897062,77.9980580
CKT_4799_01085,BUS_808,12.4700000,0.0000000,0.0000000,,,,,,,0.0000000,0.0000000,0.0000000,0.0000000,,,,,,,0.7940848,-13.6068347,,,,,10.9299517,-37.2014848,,,,
CKT_4799_01085,BUS_883,12.0000000,0.0000000,0.0000000,,,,,,,0.0000000,0.0000000,0.0000000,0.0000000,,,,,,,0.8246955,-13.6493122,,,,,11.9139301,-37.2336732,,,,
CKT_4799_01085,BUS_930,12.4700000,0.0000000,0.0000000,,,,,,,0.0000000,0.0000000,0.0000000,0.0000000,,,,,,,0.7943453,-13.5847715,0.8318888,-132.2756431,0.8241309,105.6414598,23.1600485,-38.7628422,26.8675078,-156.2851567,18.6698851,81.9629872
CKT_4799_01085,BUS_854,0.0692840,0.0000000,0.0000000,,,,,,,0.0000000,0.0000000,0.0000000,0.0000000,,,,,,,,,0.9865262,-93.4651198,,,,,0.0000000,0.0000000,,
CKT_4799_01085,BUS_95,12.4700000,0.0000000,0.0000000,,,,,,,0.0000000,0.0000000,0.0000000,0.0000000,,,,,,,,,,,0.8309483,106.2440557,,,,,0.2757995,78.4440489
CKT_4799_01085,BUS_52,12.4700000,0.0000000,0.0000000,,,,,,,0.0000000,0.0000000,0.0000000,0.0000000,,,,,,,0.9364271,-3.3294715,0.9493048,-123.0762841,,,0.0000000,0.0000000,0.0000000,0.0000000,,
CKT_4799_01085,BUS_638,12.4700000,0.0000000,0.0000000,,,,,,,0.0000000,0.0000000,0.0000000,0.0000000,,,,,,,0.8047841,-12.7161912,,,,,4.5582540,-36.2676300,,,,
CKT_4799_01085,BUS_531,0.0692840,0.0000000,0.0000000,,,,,,,0.0000000,0.0000000,0.0000000,0.0000000,,,,,,,0.9731037,-3.3294893,0.9864856,-123.0762891,,,0.0000000,0.0000000,0.0000000,0.0000000,,
CKT_4799_01085,BUS_568,12.4700000,0.0000000,0.0000000,,,,,,,0.0000000,0.0000000,0.0000000,0.0000000,,,,,,,0.7938350,-13.6298486,,,,,0.0000000,0.0000000,,,,
CKT_4799_01085,BUS_779,0.0692840,0.0000000,0.0000000,,,,,,,0.0000000,0.0000000,0.0000000,0.0000000,,,,,,,0.9731047,-3.3292560,0.9864895,-123.0762229,,,0.0000000,0.0000000,0.0000000,0.0000000,,
CKT_4799_01085,BUS_554,12.4700000,0.0000000,0.0000000,,,,,,,0.0000000,0.0000000,0.0000000,0.0000000,,,,,,,0.7972224,-13.3234027,0.8346605,-132.0337477,0.8268530,105.8471820,19.2985178,-44.9235711,11.1476336,-164.9069160,9.1346649,91.6260881
CKT_4799_01085,BUS_620,12.0000000,0.0000000,0.0000000,,,,,,,0.0000000,0.0000000,0.0000000,0.0000000,,,,,,,,,,,0.8564030,105.6408519,,,,,9.4412114,82.0729900
CKT_4799_01085,BUS_722,12.4700000,0.0000000,0.0000000,,,,,,,0.0000000,0.0000000,0.0000000,0.0000000,,,,,,,0.7960033,-13.4793021,,,,,12.4988967,-39.1058963,,,,
CKT_4799_01085,BUS_643,12.4700000,0.0000000,0.0000000,,,,,,,0.0000000,0.0000000,0.0000000,0.0000000,,,,,,,0.9364271,-3.3294715,0.9493048,-123.0762841,,,0.0000000,0.0000000,0.0000000,0.0000000,,
CKT_4799_01085,BUS_783,12.0000000,0.0000000,0.0000000,,,,,,,0.0000000,0.0000000,0.0000000,0.0000000,,,,,,,,,0.9864864,-123.0762753,0.9807655,116.3361589,,,0.0000000,0.0000000,0.0000000,0.0000000
CKT_4799_01085,BUS_618,12.4700000,0.0000000,0.0000000,,,,,,,0.0000000,0.0000000,0.0000000,0.0000000,,,,,,,0.7946555,-13.5583086,,,,,31.3757324,-38.5097851,,,,
CKT_4799_01085,BUS_763,12.4700000,0.0000000,0.0000000,,,,,,,0.0000000,0.0000000,0.0000000,0.0000000,,,,,,,0.7969953,-13.3372626,0.8344589,-132.0458582,0.8267428,105.8340302,12.2849422,-47.1118876,11.1476336,-164.9069160,9.1346649,91.6260881
CKT_4799_01085,BUS_799,12.0000000,0.0000000,0.0000000,,,,,,,0.0000000,0.0000000,0.0000000,0.0000000,,,,,,,,,0.9864864,-123.0762753,0.9807655,116.3361589,,,0.0000000,0.0000000,0.0000000,0.0000000
CKT_4799_01085,BUS_481,0.0692840,0.0000000,0.0000000,,,,,,,0.0000000,0.0000000,0.0364821,0.0192182,,,,,,,,,0.8640130,-132.1258123,,,,,1193.0763100,-159.9053475,,
CKT_4799_01085,BUS_444,12.0000000,0.0000000,0.0000000,,,,,,,0.0000000,0.0000000,0.0000000,0.0000000,,,,,,,0.8239071,-13.5574040,,,,,15.7712815,-37.2059547,,,,
CKT_4799_01085,BUS_1245,12.0000000,0.0000000,0.0000000,,,,,,,0.0000000,0.0000000,0.0000000,0.0000000,,,,,,,,,0.8632392,-132.3738011,,,,,4.5676416,-156.0048457,,
CKT_4799_01085,BUS_1294,12.0000000,0.0000000,0.0000000,,,,,,,0.0000000,0.0000000,0.0000000,0.0000000,,,,,,,,,,,0.8542484,105.4664223,,,,,3.2654317,81.9122965
CKT_4799_01085,BUS_1253,12.4700000,0.0000000,0.0000000,,,,,,,0.0000000,0.0000000,0.0000000,0.0000000,,,,,,,0.7969310,-13.4028060,0.8342878,-132.1060382,,,28.8596389,-38.8662723,13.7035128,-159.3879750,,
CKT_4799_01085,BUS_140,12.4700000,0.0000000,0.0000000,,,,,,,0.0000000,0.0000000,0.0000000,0.0000000,,,,,,,0.9364273,-3.3294233,0.9493056,-123.0762705,,,0.0180958,-0.7484030,0.0180958,179.2515953,,
CKT_4799_01085,BUS_457,12.4700000,0.0000000,0.0000000,,,,,,,0.0000000,0.0000000,0.0000000,0.0000000,,,,,,,0.7953279,-13.4976546,0.8318929,-132.2484573,0.8254897,105.6576413,7.9845395,-54.0210103,15.9245860,-167.1425738,11.2037108,96.4841429
CKT_4799_01085,BUS_164,12.0000000,0.0000000,0.0000000,,,,,,,0.0000000,0.0000000,0.0000000,0.0000000,,,,,,,0.8234873,-13.5926906,,,,,0.0000000,0.0000000,,,,
CKT_4799_01085,BUS_389,12.0000000,0.0000000,0.0000000,,,,,,,0.0000000,0.0000000,0.0000000,0.0000000,,,,,,,,,0.8636201,-132.3428015,,,,,3.8377030,-155.9596056,,
CKT_4799_01085,BUS_430,12.4700000,0.0000000,0.0000000,,,,,,,0.0000000,0.0000000,0.0000000,0.0000000,,,,,,,0.9364283,-3.3291544,0.9493100,-123.0761931,,,0.0078967,-31.3394520,0.0000000,0.0000000,,
CKT_4799_01085,BUS_101,12.0000000,0.0000000,0.0000000,,,,,,,0.0000000,0.0000000,0.0000000,0.0000000,,,,,,,,,0.9864864,-123.0762753,0.9807655,116.3361589,,,0.0000000,0.0000000,0.0000000,0.0000000
CKT_4799_01085,BUS_158,12.0000000,0.0000000,0.0000000,,,,,,,0.0000000,0.0000000,0.0000000,0.0000000,,,,,,,,,,,0.8542899,105.4697968,,,,,6.9405803,81.9147431
CKT_4799_01085,BUS_174,12.0000000,0.0000000,0.0000000,,,,,,,0.0000000,0.0000000,0.0000000,0.0000000,,,,,,,,,0.8670525,-132.0635694,,,,,6.6403275,-159.8922289,,
CKT_4799_01085,BUS_428,12.4700000,0.0000000,0.0000000,,,,,,,0.0000000,0.0000000,0.0000000,0.0000000,,,,,,,0.7934851,-13.5041818,,,,,25.1818412,-37.7349839,,,,
CKT_4799_01085,BUS_1075,12.0000000,0.0000000,0.0000000,,,,,,,0.0000000,0.0000000,0.0000000,0.0000000,,,,,,,,,,,0.8584369,105.8129208,,,,,9.7897062,77.9980580
CKT_4799_01085,BUS_1151,12.4700000,0.0000000,0.0000000,,,,,,,0.0000000,0.0000000,0.0000000,0.0000000,,,,,,,0.7979344,-13.1892235,0.8462949,-131.2424830,0.8259738,105.7819789,24.4879686,-36.9116527,3.8644509,-159.1400423,51.4988762,80.1424766
CKT_4799_01085,BUS_117,2078.4019398,0.0000000,0.0000000,,,,,,,0.0000000,0.0000000,0.0175890,0.0076670,,,,,,,,,,,0.8549714,105.5249484,,,,,0.0187023,81.9725656
CKT_4799_01085,BUS_345,12.0000000,0.0000000,0.0000000,,,,,,,0.0000000,0.0000000,0.0000000,0.0000000,,,,,,,0.9731040,-3.3294233,0.9864867,-123.0762705,,,0.0000000,0.0000000,0.0000000,0.0000000,,
CKT_4799_01085,BUS_1089,12.4700000,0.0000000,0.0000000,,,,,,,0.0000000,0.0000000,0.0000000,0.0000000,,,,,,,0.7948135,-13.3909058,0.8459470,-131.2734817,0.8252595,105.6799602,38.7698026,-50.3573632,8.7187601,-152.5729308,25.0389059,95.5518767
CKT_4799_01085,BUS_220,12.0000000,0.0000000,0.0000000,,,,,,,0.0000000,0.0000000,0.0000000,0.0000000,,,,,,,,,0.8766077,-131.4533419,,,,,25.1535885,-155.7058956,,
CKT_4799_01085,BUS_322,12.4700000,0.0000000,0.0000000,,,,,,,0.0000000,0.0000000,0.0000000,0.0000000,,,,,,,0.7938398,-13.4714287,,,,,41.3981471,-38.5813655,,,,
...