networks/new/results/CKT_4799_01085_dss_loadflow_results.csv
CKT_KEY,NODE_ID,BASE_VOLTAGE,PGEN,QGEN,PGEN_A,PGEN_B,PGEN_C,QGEN_A,QGEN_B,QGEN_C,PCAP,QCAP,PLOAD,QLOAD,PLOAD_A,PLOAD_B,PLOAD_C,QLOAD_A,QLOAD_B,QLOAD_C,VA,VA_ANGLE,VB,VB_ANGLE,VC,VC_ANGLE,IA,IA_ANGLE,IB,IB_ANGLE,IC,IC_ANGLE
CKT_4799_01085,-88888814689353,12.0,0.0,0.0,0.0,0.0,0.0,0.0,0.0,0.0,0.0,0.0,0.0,0.0,0.0,0.0,0.0,0.0,0.0,0.0,1.03,0.0,1.03,-120.0,1.03,120.0,0.0,-0.0,0.0,180.0,0.0,0.0
CKT_4799_01085,161559177,12.0,0.0,0.0,0.0,0.0,0.0,0.0,0.0,0.0,0.0,0.0,0.0,0.0,0.0,0.0,0.0,0.0,0.0,0.0,1.0299964,-0.0004353,1.029998,-120.000376,1.0299964,119.9995681,0.0,-0.0,0.0,180.0,0.0,0.0
CKT_4799_01085,166677255,12.0,0.0,0.0,0.0,0.0,0.0,0.0,0.0,0.0,0.0,0.0,0.0,0.0,0.0,0.0,0.0,0.0,0.0,0.0,1.0297621,-0.0258658,1.0298559,-120.0224263,,,0.0,-0.0,0.0,180.0,,
CKT_4799_01085,42808748,12.0,0.0,0.0,0.0,0.0,0.0,0.0,0.0,0.0,0.0,0.0,0.0,0.0,0.0,0.0,0.0,0.0,0.0,0.0,1.0295982,-0.0245296,1.0297747,-120.0216109,,,0.0,-0.0,0.0,180.0,,
CKT_4799_01085,58758112,12.0,0.0,0.0,0.0,0.0,0.0,0.0,0.0,0.0,0.0,0.0,0.0,0.0,0.0,0.0,0.0,0.0,0.0,0.0,,,,,1.0293693,119.9770894,,,,,0.0,0.0
CKT_4799_01085,58758040,12.0,0.0,0.0,0.0,0.0,0.0,0.0,0.0,0.0,0.0,0.0,0.0,0.0,0.0,0.0,0.0,0.0,0.0,0.0,,,,,1.0292535,119.9780709,,,,,0.0,0.0
CKT_4799_01085,89685710,12.0,0.0,0.0,0.0,0.0,0.0,0.0,0.0,0.0,0.0,0.0,0.0,0.0,0.0,0.0,0.0,0.0,0.0,0.0,,,,,1.0297319,119.974596,,,,,0.0,0.0
CKT_4799_01085,58785320,12.0,0.0,0.0,0.0,0.0,0.0,0.0,0.0,0.0,0.0,0.0,0.0,0.0,0.0,0.0,0.0,0.0,0.0,0.0,,,,,1.0297315,119.9745994,,,,,0.0,0.0
CKT_4799_01085,58785899,12.0,0.0,0.0,0.0,0.0,0.0,0.0,0.0,0.0,0.0,0.0,0.0,0.0,0.0,0.0,0.0,0.0,0.0,0.0,,,,,1.0296866,119.9748087,,,,,0.0,0.0
CKT_4799_01085,58785931,12.0,0.0,0.0,0.0,0.0,0.0,0.0,0.0,0.0,0.0,0.0,0.0,0.0,0.0,0.0,0.0,0.0,0.0,0.0,,,,,1.0296866,119.9748091,,,,,0.0,0.0
CKT_4799_01085,166677963,12.0,0.0,0.0,0.0,0.0,0.0,0.0,0.0,0.0,0.0,0.0,0.0,0.0,0.0,0.0,0.0,0.0,0.0,0.0,1.029744,-0.0260223,1.029873,-120.0220379,1.0297501,119.97406,0.0,-0.0,0.0,180.0,0.0,0.0
CKT_4799_01085,58833449,12.0,0.0,0.0,0.0,0.0,0.0,0.0,0.0,0.0,0.0,0.0,0.0,0.0,0.0,0.0,0.0,0.0,0.0,0.0,,,,,1.0296589,119.9748419,,,,,0.0,0.0
CKT_4799_01085,70903954,12.0,0.0,0.0,0.0,0.0,0.0,0.0,0.0,0.0,0.0,0.0,0.0,0.0,0.0,0.0,0.0,0.0,0.0,0.0,1.0297621,-0.0258659,,,,,0.0,-0.0,,,,
CKT_4799_01085,138194492,12.0,0.0,0.0,0.0,0.0,0.0,0.0,0.0,0.0,0.0,0.0,0.0,0.0,0.0,0.0,0.0,0.0,0.0,0.0,,,,,1.0295763,119.9764202,,,,,0.0,0.0
CKT_4799_01085,138194551,12.0,0.0,0.0,0.0,0.0,0.0,0.0,0.0,0.0,0.0,0.0,0.0,0.0,0.0,0.0,0.0,0.0,0.0,0.0,,,,,1.0295303,119.9771339,,,,,0.0,0.0
CKT_4799_01085,143905993,12.0,0.0,0.0,0.0,0.0,0.0,0.0,0.0,0.0,0.0,0.0,0.0,0.0,0.0,0.0,0.0,0.0,0.0,0.0,1.0295861,-0.0244006,,,,,0.0,-0.0,,,,
CKT_4799_01085,173362364,12.0,0.0,0.0,0.0,0.0,0.0,0.0,0.0,0.0,0.0,0.0,0.0,0.0,0.0,0.0,0.0,0.0,0.0,0.0,1.0297637,-0.0257288,1.0298563,-120.022311,1.0297704,119.9745337,0.0,-0.0,0.0,180.0,0.0,0.0
CKT_4799_01085,156967603,12.0,0.0,0.0,0.0,0.0,0.0,0.0,0.0,0.0,0.0,0.0,0.0,0.0,0.0,0.0,0.0,0.0,0.0,0.0,1.0297637,-0.0257286,1.0298563,-120.022311,1.0297704,119.9745338,0.0,-0.0,0.0,180.0,0.0,0.0
CKT_4799_01085,42737672,12.0,0.0,0.0,0.0,0.0,0.0,0.0,0.0,0.0,0.0,0.0,0.0,0.0,0.0,0.0,0.0,0.0,0.0,0.0,,,,,1.0295805,119.9765531,,,,,0.0,0.0
CKT_4799_01085,164505665,12.0,0.0,0.0,0.0,0.0,0.0,0.0,0.0,0.0,0.0,0.0,0.0,0.0,0.0,0.0,0.0,0.0,0.0,0.0,,,,,1.0295616,119.9767541,,,,,0.0,0.0
CKT_4799_01085,179416661,12.0,0.0,0.0,0.0,0.0,0.0,0.0,0.0,0.0,0.0,0.0,0.0,0.0,0.0,0.0,0.0,0.0,0.0,0.0,,,1.0294967,-120.0229892,,,,,0.0,180.0,,
CKT_4799_01085,180246943,12.0,0.0,0.0,0.0,0.0,0.0,0.0,0.0,0.0,0.0,0.0,0.0,0.0,0.0,0.0,0.0,0.0,0.0,0.0,,,1.0292905,-120.0205065,,,,,0.0,180.0,,
CKT_4799_01085,168957579,12.0,0.0,0.0,0.0,0.0,0.0,0.0,0.0,0.0,0.0,0.0,0.0,0.0,0.0,0.0,0.0,0.0,0.0,0.0,,,,,1.0295879,119.9722911,,,,,0.0,0.0
CKT_4799_01085,180247016,12.0,0.0,0.0,0.0,0.0,0.0,0.0,0.0,0.0,0.0,0.0,0.0,0.0,0.0,0.0,0.0,0.0,0.0,0.0,,,,,1.0289946,119.9789839,,,,,0.0,0.0
CKT_4799_01085,295945914,12.0,0.0,0.0,0.0,0.0,0.0,0.0,0.0,0.0,0.0,0.0,0.0,0.0,0.0,0.0,0.0,0.0,0.0,0.0,1.0299333,-0.0079973,1.0299626,-120.0069076,,,0.0,-0.0,0.0,180.0,,
CKT_4799_01085,264805241,12.0,0.0,0.0,0.0,0.0,0.0,0.0,0.0,0.0,0.0,0.0,0.0,0.0,0.0,0.0,0.0,0.0,0.0,0.0,1.0299333,-0.0079973,1.0299626,-120.0069076,,,0.0,-0.0,0.0,180.0,,
CKT_4799_01085,296014659,12.0,0.0,0.0,0.0,0.0,0.0,0.0,0.0,0.0,0.0,0.0,0.0,0.0,0.0,0.0,0.0,0.0,0.0,0.0,1.0299333,-0.0079973,,,1.029934,119.9920655,0.0,-0.0,,,0.0,0.0
CKT_4799_01085,296014684,12.0,0.0,0.0,0.0,0.0,0.0,0.0,0.0,0.0,0.0,0.0,0.0,0.0,0.0,0.0,0.0,0.0,0.0,0.0,1.0299333,-0.0079973,,,1.029934,119.9920655,0.0,-0.0,,,0.0,0.0
CKT_4799_01085,296014634,12.0,0.0,0.0,0.0,0.0,0.0,0.0,0.0,0.0,0.0,0.0,0.0,0.0,0.0,0.0,0.0,0.0,0.0,0.0,1.0299333,-0.0079973,1.0299626,-120.0069078,,,0.0,-0.0,0.0,180.0,,
CKT_4799_01085,296014984,12.0,0.0,0.0,0.0,0.0,0.0,0.0,0.0,0.0,0.0,0.0,0.0,0.0,0.0,0.0,0.0,0.0,0.0,0.0,1.0299333,-0.0079973,1.0299626,-120.0069078,,,0.0,-0.0,0.0,180.0,,
CKT_4799_01085,304730219,12.0,0.0,0.0,0.0,0.0,0.0,0.0,0.0,0.0,0.0,0.0,0.0,0.0,0.0,0.0,0.0,0.0,0.0,0.0,,,1.0299626,-120.0069078,1.029934,119.9920655,,,0.0,180.0,0.0,0.0
CKT_4799_01085,304730249,12.0,0.0,0.0,0.0,0.0,0.0,0.0,0.0,0.0,0.0,0.0,0.0,0.0,0.0,0.0,0.0,0.0,0.0,0.0,,,1.0299626,-120.0069078,1.029934,119.9920655,,,0.0,180.0,0.0,0.0
CKT_4799_01085,309071712,12.0,0.0,0.0,0.0,0.0,0.0,0.0,0.0,0.0,0.0,0.0,0.0,0.0,0.0,0.0,0.0,0.0,0.0,0.0,1.0299333,-0.0079971,1.0299626,-120.0069079,,,0.0,-0.0,0.0,180.0,,
CKT_4799_01085,309071467,12.0,0.0,0.0,0.0,0.0,0.0,0.0,0.0,0.0,0.0,0.0,0.0,0.0,0.0,0.0,0.0,0.0,0.0,0.0,1.0299333,-0.0079971,1.0299626,-120.0069079,,,0.0,-0.0,0.0,180.0,,
CKT_4799_01085,309071989,12.0,0.0,0.0,0.0,0.0,0.0,0.0,0.0,0.0,0.0,0.0,0.0,0.0,0.0,0.0,0.0,0.0,0.0,0.0,1.0299333,-0.0079971,1.0299626,-120.0069079,,,0.0,-0.0,0.0,180.0,,
CKT_4799_01085,309071894,12.0,0.0,0.0,0.0,0.0,0.0,0.0,0.0,0.0,0.0,0.0,0.0,0.0,0.0,0.0,0.0,0.0,0.0,0.0,1.0299333,-0.0079971,1.0299626,-120.0069079,,,0.0,-0.0,0.0,180.0,,
CKT_4799_01085,42734342,12.0,0.0,0.0,0.0,0.0,0.0,0.0,0.0,0.0,0.0,0.0,0.0,0.0,0.0,0.0,0.0,0.0,0.0,0.0,,,,,1.0295896,119.9722749,,,,,0.0,0.0
CKT_4799_01085,42734619,12.0,0.0,0.0,0.0,0.0,0.0,0.0,0.0,0.0,0.0,0.0,0.0,0.0,0.0,0.0,0.0,0.0,0.0,0.0,,,,,1.0295645,119.972559,,,,,0.0,0.0
CKT_4799_01085,42734783,12.0,0.0,0.0,0.0,0.0,0.0,0.0,0.0,0.0,0.0,0.0,0.0,0.0,0.0,0.0,0.0,0.0,0.0,0.0,,,1.029483,-120.0228316,,,,,0.0,180.0,,
CKT_4799_01085,42736930,12.0,0.0,0.0,0.0,0.0,0.0,0.0,0.0,0.0,0.0,0.0,0.0,0.0,0.0,0.0,0.0,0.0,0.0,0.0,1.0294538,-0.0296296,,,,,0.0,-0.0,,,,
CKT_4799_01085,42736943,12.0,0.0,0.0,0.0,0.0,0.0,0.0,0.0,0.0,0.0,0.0,0.0,0.0,0.0,0.0,0.0,0.0,0.0,0.0,1.0294538,-0.0296306,,,,,0.0,-0.0,,,,
CKT_4799_01085,42760314,12.0,0.0,0.0,0.0,0.0,0.0,0.0,0.0,0.0,0.0,0.0,0.0,0.0,0.0,0.0,0.0,0.0,0.0,0.0,1.0294901,-0.0290977,,,,,0.0,-0.0,,,,
CKT_4799_01085,42760327,12.0,0.0,0.0,0.0,0.0,0.0,0.0,0.0,0.0,0.0,0.0,0.0,0.0,0.0,0.0,0.0,0.0,0.0,0.0,1.02949,-0.029099,,,,,0.0,-0.0,,,,
CKT_4799_01085,42761234,12.0,0.0,0.0,0.0,0.0,0.0,0.0,0.0,0.0,0.0,0.0,0.0,0.0,0.0,0.0,0.0,0.0,0.0,0.0,,,1.0295974,-120.0256554,1.0295621,119.9717741,,,0.0,180.0,0.0,0.0
CKT_4799_01085,42760477,12.0,0.0,0.0,0.0,0.0,0.0,0.0,0.0,0.0,0.0,0.0,0.0,0.0,0.0,0.0,0.0,0.0,0.0,0.0,,,1.0295916,-120.0257339,,,,,0.0,180.0,,
CKT_4799_01085,42760642,12.0,0.0,0.0,0.0,0.0,0.0,0.0,0.0,0.0,0.0,0.0,0.0,0.0,0.0,0.0,0.0,0.0,0.0,0.0,,,1.0295817,-120.0258807,,,,,0.0,180.0,,
CKT_4799_01085,42760664,12.0,0.0,0.0,0.0,0.0,0.0,0.0,0.0,0.0,0.0,0.0,0.0,0.0,0.0,0.0,0.0,0.0,0.0,0.0,,,1.0295817,-120.0258811,,,,,0.0,180.0,,
CKT_4799_01085,42761242,12.0,0.0,0.0,0.0,0.0,0.0,0.0,0.0,0.0,0.0,0.0,0.0,0.0,0.0,0.0,0.0,0.0,0.0,0.0,,,1.0295974,-120.0256556,1.0295621,119.9717739,,,0.0,180.0,0.0,0.0
CKT_4799_01085,42761344,12.0,0.0,0.0,0.0,0.0,0.0,0.0,0.0,0.0,0.0,0.0,0.0,0.0,0.0,0.0,0.0,0.0,0.0,0.0,,,1.0295837,-120.0258449,,,,,0.0,180.0,,
CKT_4799_01085,42808516,12.0,0.0,0.0,0.0,0.0,0.0,0.0,0.0,0.0,0.0,0.0,0.0,0.0,0.0,0.0,0.0,0.0,0.0,0.0,1.0297578,-0.025798,,,,,0.0,-0.0,,,,
CKT_4799_01085,168957512,12.0,0.0,0.0,0.0,0.0,0.0,0.0,0.0,0.0,0.0,0.0,0.0,0.0,0.0,0.0,0.0,0.0,0.0,0.0,1.0295563,-0.0281479,,,,,0.0,-0.0,,,,
CKT_4799_01085,42808907,12.0,0.0,0.0,0.0,0.0,0.0,0.0,0.0,0.0,0.0,0.0,0.0,0.0,0.0,0.0,0.0,0.0,0.0,0.0,1.0295492,-0.0280577,,,,,0.0,-0.0,,,,
CKT_4799_01085,42809018,12.0,0.0,0.0,0.0,0.0,0.0,0.0,0.0,0.0,0.0,0.0,0.0,0.0,0.0,0.0,0.0,0.0,0.0,0.0,1.0295906,-0.0244725,1.02977,-120.021563,,,0.0,-0.0,0.0,180.0,,
CKT_4799_01085,58758535,12.0,0.0,0.0,0.0,0.0,0.0,0.0,0.0,0.0,0.0,0.0,0.0,0.0,0.0,0.0,0.0,0.0,0.0,0.0,1.0296343,-0.0253462,,,,,0.0,-0.0,,,,
CKT_4799_01085,58758463,12.0,0.0,0.0,0.0,0.0,0.0,0.0,0.0,0.0,0.0,0.0,0.0,0.0,0.0,0.0,0.0,0.0,0.0,0.0,1.0295492,-0.0248127,,,,,0.0,-0.0,,,,
CKT_4799_01085,166677983,12.0,0.0,0.0,0.0,0.0,0.0,0.0,0.0,0.0,0.0,0.0,0.0,0.0,0.0,0.0,0.0,0.0,0.0,0.0,1.0297259,-0.0258836,,,,,0.0,-0.0,,,,
CKT_4799_01085,58758688,12.0,0.0,0.0,0.0,0.0,0.0,0.0,0.0,0.0,0.0,0.0,0.0,0.0,0.0,0.0,0.0,0.0,0.0,0.0,1.029641,-0.0251603,,,,,0.0,-0.0,,,,
CKT_4799_01085,58767924,12.0,0.0,0.0,0.0,0.0,0.0,0.0,0.0,0.0,0.0,0.0,0.0,0.0,0.0,0.0,0.0,0.0,0.0,0.0,,,,,1.0296547,119.9748766,,,,,0.0,0.0
CKT_4799_01085,58769810,12.0,0.0,0.0,0.0,0.0,0.0,0.0,0.0,0.0,0.0,0.0,0.0,0.0,0.0,0.0,0.0,0.0,0.0,0.0,1.0295448,-0.024763,,,,,0.0,-0.0,,,,
CKT_4799_01085,58787230,12.0,0.0,0.0,0.0,0.0,0.0,0.0,0.0,0.0,0.0,0.0,0.0,0.0,0.0,0.0,0.0,0.0,0.0,0.0,,,1.0294951,-120.0194745,,,,,0.0,180.0,,
CKT_4799_01085,58787217,12.0,0.0,0.0,0.0,0.0,0.0,0.0,0.0,0.0,0.0,0.0,0.0,0.0,0.0,0.0,0.0,0.0,0.0,0.0,,,1.0294938,-120.0194657,,,,,0.0,180.0,,
CKT_4799_01085,58786703,12.0,0.0,0.0,0.0,0.0,0.0,0.0,0.0,0.0,0.0,0.0,0.0,0.0,0.0,0.0,0.0,0.0,0.0,0.0,1.0293425,-0.0213021,,,,,0.0,-0.0,,,,
CKT_4799_01085,58832261,12.0,0.0,0.0,0.0,0.0,0.0,0.0,0.0,0.0,0.0,0.0,0.0,0.0,0.0,0.0,0.0,0.0,0.0,0.0,1.0293415,-0.02129,,,,,0.0,-0.0,,,,
CKT_4799_01085,58833350,12.0,0.0,0.0,0.0,0.0,0.0,0.0,0.0,0.0,0.0,0.0,0.0,0.0,0.0,0.0,0.0,0.0,0.0,0.0,,,,,1.029622,119.9751784,,,,,0.0,0.0
CKT_4799_01085,138172597,12.0,0.0,0.0,0.0,0.0,0.0,0.0,0.0,0.0,0.0,0.0,0.0,0.0,0.0,0.0,0.0,0.0,0.0,0.0,,,1.0297584,-120.0214401,,,,,0.0,180.0,,
CKT_4799_01085,42710853,12.0,0.0,0.0,0.0,0.0,0.0,0.0,0.0,0.0,0.0,0.0,0.0,0.0,0.0,0.0,0.0,0.0,0.0,0.0,,,1.0296974,-120.0206215,,,,,0.0,180.0,,
CKT_4799_01085,173362675,12.0,0.0,0.0,0.0,0.0,0.0,0.0,0.0,0.0,0.0,0.0,0.0,0.0,0.0,0.0,0.0,0.0,0.0,0.0,,,1.0296594,-120.0202166,,,,,0.0,180.0,,
CKT_4799_01085,287568176,12.0,0.0,0.0,0.0,0.0,0.0,0.0,0.0,0.0,0.0,0.0,0.0,0.0,0.0,0.0,0.0,0.0,0.0,0.0,1.0299333,-0.0079973,1.0299626,-120.0069077,,,0.0,-0.0,0.0,180.0,,
CKT_4799_01085,269096533,12.0,0.0,0.0,0.0,0.0,0.0,0.0,0.0,0.0,0.0,0.0,0.0,0.0,0.0,0.0,0.0,0.0,0.0,0.0,1.0299333,-0.0079973,1.0299626,-120.0069077,,,0.0,-0.0,0.0,180.0,,
CKT_4799_01085,42735101,12.0,0.0,0.0,0.0,0.0,0.0,0.0,0.0,0.0,0.0,0.0,0.0,0.0,0.0,0.0,0.0,0.0,0.0,0.0,1.0295273,-0.0278184,,,,,0.0,-0.0,,,,
CKT_4799_01085,42735487,12.0,0.0,0.0,0.0,0.0,0.0,0.0,0.0,0.0,0.0,0.0,0.0,0.0,0.0,0.0,0.0,0.0,0.0,0.0,1.0294011,-0.0260885,,,,,0.0,-0.0,,,,
CKT_4799_01085,42736779,12.0,0.0,0.0,0.0,0.0,0.0,0.0,0.0,0.0,0.0,0.0,0.0,0.0,0.0,0.0,0.0,0.0,0.0,0.0,1.029486,-0.029126,,,,,0.0,-0.0,,,,
CKT_4799_01085,42737947,12.0,0.0,0.0,0.0,0.0,0.0,0.0,0.0,0.0,0.0,0.0,0.0,0.0,0.0,0.0,0.0,0.0,0.0,0.0,1.0294827,-0.0291625,,,,,0.0,-0.0,,,,
CKT_4799_01085,42807357,12.0,0.0,0.0,0.0,0.0,0.0,0.0,0.0,0.0,0.0,0.0,0.0,0.0,0.0,0.0,0.0,0.0,0.0,0.0,1.0297578,-0.0257976,,,,,0.0,-0.0,,,,
CKT_4799_01085,42807364,12.0,0.0,0.0,0.0,0.0,0.0,0.0,0.0,0.0,0.0,0.0,0.0,0.0,0.0,0.0,0.0,0.0,0.0,0.0,1.0297536,-0.0257308,,,,,0.0,-0.0,,,,
CKT_4799_01085,42761218,12.0,0.0,0.0,0.0,0.0,0.0,0.0,0.0,0.0,0.0,0.0,0.0,0.0,0.0,0.0,0.0,0.0,0.0,0.0,,,1.0295974,-120.0256556,1.0295621,119.9717736,,,0.0,180.0,0.0,0.0
CKT_4799_01085,42808824,12.0,0.0,0.0,0.0,0.0,0.0,0.0,0.0,0.0,0.0,0.0,0.0,0.0,0.0,0.0,0.0,0.0,0.0,0.0,,,1.0295974,-120.0256557,1.0295621,119.9717731,,,0.0,180.0,0.0,0.0
CKT_4799_01085,42809019,12.0,0.0,0.0,0.0,0.0,0.0,0.0,0.0,0.0,0.0,0.0,0.0,0.0,0.0,0.0,0.0,0.0,0.0,0.0,1.0295766,-0.0243676,1.0297654,-120.0215188,,,0.0,-0.0,0.0,180.0,,
CKT_4799_01085,58767771,12.0,0.0,0.0,0.0,0.0,0.0,0.0,0.0,0.0,0.0,0.0,0.0,0.0,0.0,0.0,0.0,0.0,0.0,0.0,,,,,1.0296136,119.9752323,,,,,0.0,0.0
CKT_4799_01085,58767843,12.0,0.0,0.0,0.0,0.0,0.0,0.0,0.0,0.0,0.0,0.0,0.0,0.0,0.0,0.0,0.0,0.0,0.0,0.0,,,,,1.0296206,119.9751928,,,,,0.0,0.0
CKT_4799_01085,143906021,12.0,0.0,0.0,0.0,0.0,0.0,0.0,0.0,0.0,0.0,0.0,0.0,0.0,0.0,0.0,0.0,0.0,0.0,0.0,1.0295343,-0.0240505,,,,,0.0,-0.0,,,,
CKT_4799_01085,42734620,12.0,0.0,0.0,0.0,0.0,0.0,0.0,0.0,0.0,0.0,0.0,0.0,0.0,0.0,0.0,0.0,0.0,0.0,0.0,,,,,1.0295645,119.9725588,,,,,0.0,0.0
CKT_4799_01085,180247325,12.0,0.0,0.0,0.0,0.0,0.0,0.0,0.0,0.0,0.0,0.0,0.0,0.0,0.0,0.0,0.0,0.0,0.0,0.0,,,,,1.0295639,119.9725646,,,,,0.0,0.0
CKT_4799_01085,264805242,12.0,0.0,0.0,0.0,0.0,0.0,0.0,0.0,0.0,0.0,0.0,0.0,0.0,0.0,0.0,0.0,0.0,0.0,0.0,1.0299333,-0.0079973,1.0299626,-120.0069076,,,0.0,-0.0,0.0,180.0,,
CKT_4799_01085,264805175,12.0,0.0,0.0,0.0,0.0,0.0,0.0,0.0,0.0,0.0,0.0,0.0,0.0,0.0,0.0,0.0,0.0,0.0,0.0,1.0299333,-0.0079973,1.0299626,-120.0069076,,,0.0,-0.0,0.0,180.0,,
CKT_4799_01085,287568236,12.0,0.0,0.0,0.0,0.0,0.0,0.0,0.0,0.0,0.0,0.0,0.0,0.0,0.0,0.0,0.0,0.0,0.0,0.0,1.0299333,-0.0079973,1.0299626,-120.0069078,,,0.0,-0.0,0.0,180.0,,
CKT_4799_01085,287568897,12.0,0.0,0.0,0.0,0.0,0.0,0.0,0.0,0.0,0.0,0.0,0.0,0.0,0.0,0.0,0.0,0.0,0.0,0.0,1.0299333,-0.0079973,1.0299626,-120.0069078,,,0.0,-0.0,0.0,180.0,,
CKT_4799_01085,288883553,12.0,0.0,0.0,0.0,0.0,0.0,0.0,0.0,0.0,0.0,0.0,0.0,0.0,0.0,0.0,0.0,0.0,0.0,0.0,,,1.0297197,-120.0210829,,,,,0.0,180.0,,
CKT_4799_01085,296014985,12.0,0.0,0.0,0.0,0.0,0.0,0.0,0.0,0.0,0.0,0.0,0.0,0.0,0.0,0.0,0.0,0.0,0.0,0.0,1.0299333,-0.0079973,1.0299626,-120.0069078,,,0.0,-0.0,0.0,180.0,,
CKT_4799_01085,295602926,12.0,0.0,0.0,0.0,0.0,0.0,0.0,0.0,0.0,0.0,0.0,0.0,0.0,0.0,0.0,0.0,0.0,0.0,0.0,1.0299333,-0.0079973,1.0299626,-120.0069078,,,0.0,-0.0,0.0,180.0,,
CKT_4799_01085,296014685,12.0,0.0,0.0,0.0,0.0,0.0,0.0,0.0,0.0,0.0,0.0,0.0,0.0,0.0,0.0,0.0,0.0,0.0,0.0,1.0299333,-0.0079973,,,1.029934,119.9920655,0.0,-0.0,,,0.0,0.0
CKT_4799_01085,295603015,12.0,0.0,0.0,0.0,0.0,0.0,0.0,0.0,0.0,0.0,0.0,0.0,0.0,0.0,0.0,0.0,0.0,0.0,0.0,1.0299333,-0.0079973,,,1.029934,119.9920655,0.0,-0.0,,,0.0,0.0
CKT_4799_01085,304730250,12.0,0.0,0.0,0.0,0.0,0.0,0.0,0.0,0.0,0.0,0.0,0.0,0.0,0.0,0.0,0.0,0.0,0.0,0.0,,,1.0299626,-120.0069078,1.029934,119.9920655,,,0.0,180.0,0.0,0.0
CKT_4799_01085,304730116,12.0,0.0,0.0,0.0,0.0,0.0,0.0,0.0,0.0,0.0,0.0,0.0,0.0,0.0,0.0,0.0,0.0,0.0,0.0,,,1.0299626,-120.0069078,1.029934,119.9920655,,,0.0,180.0,0.0,0.0
CKT_4799_01085,143905994,12.0,0.0,0.0,0.0,0.0,0.0,0.0,0.0,0.0,0.0,0.0,0.0,0.0,0.0,0.0,0.0,0.0,0.0,0.0,1.0295861,-0.0244007,,,,,0.0,-0.0,,,,
CKT_4799_01085,42711892,12.0,0.0,0.0,0.0,0.0,0.0,0.0,0.0,0.0,0.0,0.0,0.0,0.0,0.0,0.0,0.0,0.0,0.0,0.0,1.0295855,-0.0243949,,,,,0.0,-0.0,,,,
CKT_4799_01085,42734784,12.0,0.0,0.0,0.0,0.0,0.0,0.0,0.0,0.0,0.0,0.0,0.0,0.0,0.0,0.0,0.0,0.0,0.0,0.0,,,1.029483,-120.0228317,,,,,0.0,180.0,,
CKT_4799_01085,42734797,12.0,0.0,0.0,0.0,0.0,0.0,0.0,0.0,0.0,0.0,0.0,0.0,0.0,0.0,0.0,0.0,0.0,0.0,0.0,,,1.0294828,-120.0228293,,,,,0.0,180.0,,
CKT_4799_01085,180247017,12.0,0.0,0.0,0.0,0.0,0.0,0.0,0.0,0.0,0.0,0.0,0.0,0.0,0.0,0.0,0.0,0.0,0.0,0.0,,,,,1.0289946,119.9789836,,,,,0.0,0.0
CKT_4799_01085,42735346,12.0,0.0,0.0,0.0,0.0,0.0,0.0,0.0,0.0,0.0,0.0,0.0,0.0,0.0,0.0,0.0,0.0,0.0,0.0,,,,,1.0289917,119.9790164,,,,,0.0,0.0
CKT_4799_01085,164505666,12.0,0.0,0.0,0.0,0.0,0.0,0.0,0.0,0.0,0.0,0.0,0.0,0.0,0.0,0.0,0.0,0.0,0.0,0.0,,,,,1.0295616,119.976754,,,,,0.0,0.0
CKT_4799_01085,42737735,12.0,0.0,0.0,0.0,0.0,0.0,0.0,0.0,0.0,0.0,0.0,0.0,0.0,0.0,0.0,0.0,0.0,0.0,0.0,,,,,1.0295608,119.9767618,,,,,0.0,0.0
CKT_4799_01085,42760478,12.0,0.0,0.0,0.0,0.0,0.0,0.0,0.0,0.0,0.0,0.0,0.0,0.0,0.0,0.0,0.0,0.0,0.0,0.0,,,1.0295916,-120.025734,,,,,0.0,180.0,,
CKT_4799_01085,42760500,12.0,0.0,0.0,0.0,0.0,0.0,0.0,0.0,0.0,0.0,0.0,0.0,0.0,0.0,0.0,0.0,0.0,0.0,0.0,,,1.0295913,-120.0257383,,,,,0.0,180.0,,
CKT_4799_01085,42761345,12.0,0.0,0.0,0.0,0.0,0.0,0.0,0.0,0.0,0.0,0.0,0.0,0.0,0.0,0.0,0.0,0.0,0.0,0.0,,,1.0295837,-120.0258451,,,,,0.0,180.0,,
CKT_4799_01085,42761367,12.0,0.0,0.0,0.0,0.0,0.0,0.0,0.0,0.0,0.0,0.0,0.0,0.0,0.0,0.0,0.0,0.0,0.0,0.0,,,1.0295835,-120.0258469,,,,,0.0,180.0,,
CKT_4799_01085,42761590,12.0,0.0,0.0,0.0,0.0,0.0,0.0,0.0,0.0,0.0,0.0,0.0,0.0,0.0,0.0,0.0,0.0,0.0,0.0,,,1.0295932,-120.0257062,,,,,0.0,180.0,,
CKT_4799_01085,42761754,12.0,0.0,0.0,0.0,0.0,0.0,0.0,0.0,0.0,0.0,0.0,0.0,0.0,0.0,0.0,0.0,0.0,0.0,0.0,,,,,1.0295413,119.9714896,,,,,0.0,0.0
CKT_4799_01085,180246944,12.0,0.0,0.0,0.0,0.0,0.0,0.0,0.0,0.0,0.0,0.0,0.0,0.0,0.0,0.0,0.0,0.0,0.0,0.0,,,1.0292904,-120.0205067,,,,,0.0,180.0,,
CKT_4799_01085,42786370,12.0,0.0,0.0,0.0,0.0,0.0,0.0,0.0,0.0,0.0,0.0,0.0,0.0,0.0,0.0,0.0,0.0,0.0,0.0,,,1.0292874,-120.0204695,,,,,0.0,180.0,,
CKT_4799_01085,156967177,12.0,0.0,0.0,0.0,0.0,0.0,0.0,0.0,0.0,0.0,0.0,0.0,0.0,0.0,0.0,0.0,0.0,0.0,0.0,1.0297623,-0.0258562,1.0298536,-120.0223987,1.0297693,119.9744604,0.0,-0.0,0.0,180.0,0.0,0.0
CKT_4799_01085,42807454,12.0,0.0,0.0,0.0,0.0,0.0,0.0,0.0,0.0,0.0,0.0,0.0,0.0,0.0,0.0,0.0,0.0,0.0,0.0,1.0297623,-0.0258561,1.0298536,-120.0223986,1.0297693,119.9744604,0.0,-0.0,0.0,180.0,0.0,0.0
CKT_4799_01085,58758031,12.0,0.0,0.0,0.0,0.0,0.0,0.0,0.0,0.0,0.0,0.0,0.0,0.0,0.0,0.0,0.0,0.0,0.0,0.0,,,,,1.0292535,119.9780705,,,,,0.0,0.0
CKT_4799_01085,58757959,12.0,0.0,0.0,0.0,0.0,0.0,0.0,0.0,0.0,0.0,0.0,0.0,0.0,0.0,0.0,0.0,0.0,0.0,0.0,,,,,1.0292126,119.978456,,,,,0.0,0.0
CKT_4799_01085,58785311,12.0,0.0,0.0,0.0,0.0,0.0,0.0,0.0,0.0,0.0,0.0,0.0,0.0,0.0,0.0,0.0,0.0,0.0,0.0,,,,,1.0297315,119.9745993,,,,,0.0,0.0
CKT_4799_01085,58785298,12.0,0.0,0.0,0.0,0.0,0.0,0.0,0.0,0.0,0.0,0.0,0.0,0.0,0.0,0.0,0.0,0.0,0.0,0.0,,,,,1.0297314,119.9746,,,,,0.0,0.0
CKT_4799_01085,58785922,12.0,0.0,0.0,0.0,0.0,0.0,0.0,0.0,0.0,0.0,0.0,0.0,0.0,0.0,0.0,0.0,0.0,0.0,0.0,,,,,1.0296865,119.9748087,,,,,0.0,0.0
CKT_4799_01085,58785909,12.0,0.0,0.0,0.0,0.0,0.0,0.0,0.0,0.0,0.0,0.0,0.0,0.0,0.0,0.0,0.0,0.0,0.0,0.0,,,,,1.0296859,119.9748129,,,,,0.0,0.0
CKT_4799_01085,58832260,12.0,0.0,0.0,0.0,0.0,0.0,0.0,0.0,0.0,0.0,0.0,0.0,0.0,0.0,0.0,0.0,0.0,0.0,0.0,1.0293415,-0.0212902,,,,,0.0,-0.0,,,,
CKT_4799_01085,58786831,12.0,0.0,0.0,0.0,0.0,0.0,0.0,0.0,0.0,0.0,0.0,0.0,0.0,0.0,0.0,0.0,0.0,0.0,0.0,1.0293264,-0.0211133,,,,,0.0,-0.0,,,,
CKT_4799_01085,58787216,12.0,0.0,0.0,0.0,0.0,0.0,0.0,0.0,0.0,0.0,0.0,0.0,0.0,0.0,0.0,0.0,0.0,0.0,0.0,,,1.0294938,-120.0194659,,,,,0.0,180.0,,
CKT_4799_01085,58787308,12.0,0.0,0.0,0.0,0.0,0.0,0.0,0.0,0.0,0.0,0.0,0.0,0.0,0.0,0.0,0.0,0.0,0.0,0.0,,,1.0294395,-120.019098,,,,,0.0,180.0,,
CKT_4799_01085,156967586,12.0,0.0,0.0,0.0,0.0,0.0,0.0,0.0,0.0,0.0,0.0,0.0,0.0,0.0,0.0,0.0,0.0,0.0,0.0,1.0297636,-0.0257288,1.0298563,-120.022311,1.0297704,119.9745337,0.0,-0.0,0.0,180.0,0.0,0.0
CKT_4799_01085,173362391,12.0,0.0,0.0,0.0,0.0,0.0,0.0,0.0,0.0,0.0,0.0,0.0,0.0,0.0,0.0,0.0,0.0,0.0,0.0,1.0297636,-0.0257286,1.0298563,-120.022311,1.0297704,119.9745337,0.0,-0.0,0.0,180.0,0.0,0.0
CKT_4799_01085,42736952,12.0,0.0,0.0,0.0,0.0,0.0,0.0,0.0,0.0,0.0,0.0,0.0,0.0,0.0,0.0,0.0,0.0,0.0,0.0,1.0294537,-0.0296308,,,,,0.0,-0.0,,,,
CKT_4799_01085,176736312,12.0,0.0,0.0,0.0,0.0,0.0,0.0,0.0,0.0,0.0,0.0,0.0,0.0,0.0,0.0,0.0,0.0,0.0,0.0,1.0294537,-0.0296319,,,,,0.0,-0.0,,,,
CKT_4799_01085,42760655,12.0,0.0,0.0,0.0,0.0,0.0,0.0,0.0,0.0,0.0,0.0,0.0,0.0,0.0,0.0,0.0,0.0,0.0,0.0,,,1.0295817,-120.0258812,,,,,0.0,180.0,,
CKT_4799_01085,176736453,12.0,0.0,0.0,0.0,0.0,0.0,0.0,0.0,0.0,0.0,0.0,0.0,0.0,0.0,0.0,0.0,0.0,0.0,0.0,,,1.0295816,-120.0258817,,,,,0.0,180.0,,
CKT_4799_01085,180247340,12.0,0.0,0.0,0.0,0.0,0.0,0.0,0.0,0.0,0.0,0.0,0.0,0.0,0.0,0.0,0.0,0.0,0.0,0.0,,,,,1.0295602,119.9726074,,,,,0.0,0.0
CKT_4799_01085,269096534,12.0,0.0,0.0,0.0,0.0,0.0,0.0,0.0,0.0,0.0,0.0,0.0,0.0,0.0,0.0,0.0,0.0,0.0,0.0,1.0299333,-0.0079973,1.0299626,-120.0069077,,,0.0,-0.0,0.0,180.0,,
CKT_4799_01085,269096469,12.0,0.0,0.0,0.0,0.0,0.0,0.0,0.0,0.0,0.0,0.0,0.0,0.0,0.0,0.0,0.0,0.0,0.0,0.0,1.0299333,-0.0079973,1.0299626,-120.0069077,,,0.0,-0.0,0.0,180.0,,
CKT_4799_01085,309071475,12.0,0.0,0.0,0.0,0.0,0.0,0.0,0.0,0.0,0.0,0.0,0.0,0.0,0.0,0.0,0.0,0.0,0.0,0.0,1.0299333,-0.0079971,1.0299626,-120.0069079,,,0.0,-0.0,0.0,180.0,,
CKT_4799_01085,309071812,12.0,0.0,0.0,0.0,0.0,0.0,0.0,0.0,0.0,0.0,0.0,0.0,0.0,0.0,0.0,0.0,0.0,0.0,0.0,1.0299333,-0.0079971,1.0299626,-120.0069079,,,0.0,-0.0,0.0,180.0,,
CKT_4799_01085,309071902,12.0,0.0,0.0,0.0,0.0,0.0,0.0,0.0,0.0,0.0,0.0,0.0,0.0,0.0,0.0,0.0,0.0,0.0,0.0,1.0299333,-0.0079971,1.0299626,-120.0069079,,,0.0,-0.0,0.0,180.0,,
CKT_4799_01085,309072174,12.0,0.0,0.0,0.0,0.0,0.0,0.0,0.0,0.0,0.0,0.0,0.0,0.0,0.0,0.0,0.0,0.0,0.0,0.0,1.0299333,-0.0079971,1.0299626,-120.0069079,,,0.0,-0.0,0.0,180.0,,
CKT_4799_01085,173362676,12.0,0.0,0.0,0.0,0.0,0.0,0.0,0.0,0.0,0.0,0.0,0.0,0.0,0.0,0.0,0.0,0.0,0.0,0.0,,,1.0296594,-120.0202167,,,,,0.0,180.0,,
CKT_4799_01085,42710925,12.0,0.0,0.0,0.0,0.0,0.0,0.0,0.0,0.0,0.0,0.0,0.0,0.0,0.0,0.0,0.0,0.0,0.0,0.0,,,1.0296589,-120.0202118,,,,,0.0,180.0,,
CKT_4799_01085,138172598,12.0,0.0,0.0,0.0,0.0,0.0,0.0,0.0,0.0,0.0,0.0,0.0,0.0,0.0,0.0,0.0,0.0,0.0,0.0,,,1.0297584,-120.0214402,,,,,0.0,180.0,,
CKT_4799_01085,42711829,12.0,0.0,0.0,0.0,0.0,0.0,0.0,0.0,0.0,0.0,0.0,0.0,0.0,0.0,0.0,0.0,0.0,0.0,0.0,,,1.0297578,-120.0214344,,,,,0.0,180.0,,
CKT_4799_01085,42734633,12.0,0.0,0.0,0.0,0.0,0.0,0.0,0.0,0.0,0.0,0.0,0.0,0.0,0.0,0.0,0.0,0.0,0.0,0.0,,,,,1.0295637,119.9725679,,,,,0.0,0.0
CKT_4799_01085,42735102,12.0,0.0,0.0,0.0,0.0,0.0,0.0,0.0,0.0,0.0,0.0,0.0,0.0,0.0,0.0,0.0,0.0,0.0,0.0,1.0295273,-0.0278184,,,,,0.0,-0.0,,,,
CKT_4799_01085,42735124,12.0,0.0,0.0,0.0,0.0,0.0,0.0,0.0,0.0,0.0,0.0,0.0,0.0,0.0,0.0,0.0,0.0,0.0,0.0,1.0295269,-0.0278139,,,,,0.0,-0.0,,,,
CKT_4799_01085,42735488,12.0,0.0,0.0,0.0,0.0,0.0,0.0,0.0,0.0,0.0,0.0,0.0,0.0,0.0,0.0,0.0,0.0,0.0,0.0,1.0294011,-0.0260887,,,,,0.0,-0.0,,,,
CKT_4799_01085,42735510,12.0,0.0,0.0,0.0,0.0,0.0,0.0,0.0,0.0,0.0,0.0,0.0,0.0,0.0,0.0,0.0,0.0,0.0,0.0,1.0294,-0.0260731,,,,,0.0,-0.0,,,,
CKT_4799_01085,42737948,12.0,0.0,0.0,0.0,0.0,0.0,0.0,0.0,0.0,0.0,0.0,0.0,0.0,0.0,0.0,0.0,0.0,0.0,0.0,1.0294827,-0.0291626,,,,,0.0,-0.0,,,,
CKT_4799_01085,42737961,12.0,0.0,0.0,0.0,0.0,0.0,0.0,0.0,0.0,0.0,0.0,0.0,0.0,0.0,0.0,0.0,0.0,0.0,0.0,1.0294824,-0.0291658,,,,,0.0,-0.0,,,,
CKT_4799_01085,42760336,12.0,0.0,0.0,0.0,0.0,0.0,0.0,0.0,0.0,0.0,0.0,0.0,0.0,0.0,0.0,0.0,0.0,0.0,0.0,1.02949,-0.0290992,,,,,0.0,-0.0,,,,
CKT_4799_01085,42760395,12.0,0.0,0.0,0.0,0.0,0.0,0.0,0.0,0.0,0.0,0.0,0.0,0.0,0.0,0.0,0.0,0.0,0.0,0.0,1.0294851,-0.0291656,,,,,0.0,-0.0,,,,
CKT_4799_01085,58758472,12.0,0.0,0.0,0.0,0.0,0.0,0.0,0.0,0.0,0.0,0.0,0.0,0.0,0.0,0.0,0.0,0.0,0.0,0.0,1.0295492,-0.0248131,,,,,0.0,-0.0,,,,
CKT_4799_01085,58758400,12.0,0.0,0.0,0.0,0.0,0.0,0.0,0.0,0.0,0.0,0.0,0.0,0.0,0.0,0.0,0.0,0.0,0.0,0.0,1.0294973,-0.0244862,,,,,0.0,-0.0,,,,
CKT_4799_01085,58767915,12.0,0.0,0.0,0.0,0.0,0.0,0.0,0.0,0.0,0.0,0.0,0.0,0.0,0.0,0.0,0.0,0.0,0.0,0.0,,,,,1.0296547,119.9748764,,,,,0.0,0.0
CKT_4799_01085,58768068,12.0,0.0,0.0,0.0,0.0,0.0,0.0,0.0,0.0,0.0,0.0,0.0,0.0,0.0,0.0,0.0,0.0,0.0,0.0,,,,,1.029632,119.9750197,,,,,0.0,0.0
CKT_4799_01085,58769819,12.0,0.0,0.0,0.0,0.0,0.0,0.0,0.0,0.0,0.0,0.0,0.0,0.0,0.0,0.0,0.0,0.0,0.0,0.0,1.0295448,-0.0247632,,,,,0.0,-0.0,,,,
CKT_4799_01085,58770405,12.0,0.0,0.0,0.0,0.0,0.0,0.0,0.0,0.0,0.0,0.0,0.0,0.0,0.0,0.0,0.0,0.0,0.0,0.0,1.029487,-0.0244033,,,,,0.0,-0.0,,,,
CKT_4799_01085,58758679,12.0,0.0,0.0,0.0,0.0,0.0,0.0,0.0,0.0,0.0,0.0,0.0,0.0,0.0,0.0,0.0,0.0,0.0,0.0,1.029641,-0.0251606,,,,,0.0,-0.0,,,,
CKT_4799_01085,58833200,12.0,0.0,0.0,0.0,0.0,0.0,0.0,0.0,0.0,0.0,0.0,0.0,0.0,0.0,0.0,0.0,0.0,0.0,0.0,1.029595,-0.02484,,,,,0.0,-0.0,,,,
CKT_4799_01085,287568896,12.0,0.0,0.0,0.0,0.0,0.0,0.0,0.0,0.0,0.0,0.0,0.0,0.0,0.0,0.0,0.0,0.0,0.0,0.0,1.0299333,-0.0079973,1.0299626,-120.0069078,,,0.0,-0.0,0.0,180.0,,
CKT_4799_01085,287568871,12.0,0.0,0.0,0.0,0.0,0.0,0.0,0.0,0.0,0.0,0.0,0.0,0.0,0.0,0.0,0.0,0.0,0.0,0.0,1.0299333,-0.0079973,1.0299626,-120.0069078,,,0.0,-0.0,0.0,180.0,,
CKT_4799_01085,143906022,12.0,0.0,0.0,0.0,0.0,0.0,0.0,0.0,0.0,0.0,0.0,0.0,0.0,0.0,0.0,0.0,0.0,0.0,0.0,1.0295343,-0.0240507,,,,,0.0,-0.0,,,,
CKT_4799_01085,42711685,12.0,0.0,0.0,0.0,0.0,0.0,0.0,0.0,0.0,0.0,0.0,0.0,0.0,0.0,0.0,0.0,0.0,0.0,0.0,1.0295323,-0.0240357,,,,,0.0,-0.0,,,,
CKT_4799_01085,288883554,12.0,0.0,0.0,0.0,0.0,0.0,0.0,0.0,0.0,0.0,0.0,0.0,0.0,0.0,0.0,0.0,0.0,0.0,0.0,,,1.0297197,-120.021083,,,,,0.0,180.0,,
CKT_4799_01085,42711748,12.0,0.0,0.0,0.0,0.0,0.0,0.0,0.0,0.0,0.0,0.0,0.0,0.0,0.0,0.0,0.0,0.0,0.0,0.0,,,1.0297194,-120.0210801,,,,,0.0,180.0,,
CKT_4799_01085,42807453,12.0,0.0,0.0,0.0,0.0,0.0,0.0,0.0,0.0,0.0,0.0,0.0,0.0,0.0,0.0,0.0,0.0,0.0,0.0,1.0297623,-0.0258562,1.0298536,-120.0223986,1.0297693,119.9744604,0.0,-0.0,0.0,180.0,0.0,0.0
CKT_4799_01085,42711979,12.0,0.0,0.0,0.0,0.0,0.0,0.0,0.0,0.0,0.0,0.0,0.0,0.0,0.0,0.0,0.0,0.0,0.0,0.0,1.0297614,-0.025846,1.0298527,-120.0223885,1.0297684,119.9744705,0.0,-0.0,0.0,180.0,0.0,0.0
CKT_4799_01085,42761591,12.0,0.0,0.0,0.0,0.0,0.0,0.0,0.0,0.0,0.0,0.0,0.0,0.0,0.0,0.0,0.0,0.0,0.0,0.0,,,1.0295932,-120.0257063,,,,,0.0,180.0,,
CKT_4799_01085,42761604,12.0,0.0,0.0,0.0,0.0,0.0,0.0,0.0,0.0,0.0,0.0,0.0,0.0,0.0,0.0,0.0,0.0,0.0,0.0,,,1.029593,-120.0257082,,,,,0.0,180.0,,
CKT_4799_01085,42761755,12.0,0.0,0.0,0.0,0.0,0.0,0.0,0.0,0.0,0.0,0.0,0.0,0.0,0.0,0.0,0.0,0.0,0.0,0.0,,,,,1.0295413,119.9714894,,,,,0.0,0.0
CKT_4799_01085,42761768,12.0,0.0,0.0,0.0,0.0,0.0,0.0,0.0,0.0,0.0,0.0,0.0,0.0,0.0,0.0,0.0,0.0,0.0,0.0,,,,,1.029541,119.9714844,,,,,0.0,0.0
CKT_4799_01085,58758607,12.0,0.0,0.0,0.0,0.0,0.0,0.0,0.0,0.0,0.0,0.0,0.0,0.0,0.0,0.0,0.0,0.0,0.0,0.0,1.0295848,-0.024778,,,,,0.0,-0.0,,,,
CKT_4799_01085,58767852,12.0,0.0,0.0,0.0,0.0,0.0,0.0,0.0,0.0,0.0,0.0,0.0,0.0,0.0,0.0,0.0,0.0,0.0,0.0,,,,,1.0296206,119.9751927,,,,,0.0,0.0
CKT_4799_01085,58767699,12.0,0.0,0.0,0.0,0.0,0.0,0.0,0.0,0.0,0.0,0.0,0.0,0.0,0.0,0.0,0.0,0.0,0.0,0.0,,,,,1.0296067,119.9753408,,,,,0.0,0.0
CKT_4799_01085,58769891,12.0,0.0,0.0,0.0,0.0,0.0,0.0,0.0,0.0,0.0,0.0,0.0,0.0,0.0,0.0,0.0,0.0,0.0,0.0,1.0295598,-0.0245778,,,,,0.0,-0.0,,,,
CKT_4799_01085,58787309,12.0,0.0,0.0,0.0,0.0,0.0,0.0,0.0,0.0,0.0,0.0,0.0,0.0,0.0,0.0,0.0,0.0,0.0,0.0,,,1.0294395,-120.0190983,,,,,0.0,180.0,,
CKT_4799_01085,58787322,12.0,0.0,0.0,0.0,0.0,0.0,0.0,0.0,0.0,0.0,0.0,0.0,0.0,0.0,0.0,0.0,0.0,0.0,0.0,,,1.0294381,-120.0190892,,,,,0.0,180.0,,
CKT_4799_01085,58785297,12.0,0.0,0.0,0.0,0.0,0.0,0.0,0.0,0.0,0.0,0.0,0.0,0.0,0.0,0.0,0.0,0.0,0.0,0.0,,,,,1.0297314,119.9746,,,,,0.0,0.0
CKT_4799_01085,89685699,12.0,0.0,0.0,0.0,0.0,0.0,0.0,0.0,0.0,0.0,0.0,0.0,0.0,0.0,0.0,0.0,0.0,0.0,0.0,,,,,1.0297222,119.9746565,,,,,0.0,0.0
CKT_4799_01085,58785908,12.0,0.0,0.0,0.0,0.0,0.0,0.0,0.0,0.0,0.0,0.0,0.0,0.0,0.0,0.0,0.0,0.0,0.0,0.0,,,,,1.0296858,119.9748127,,,,,0.0,0.0
CKT_4799_01085,89685907,12.0,0.0,0.0,0.0,0.0,0.0,0.0,0.0,0.0,0.0,0.0,0.0,0.0,0.0,0.0,0.0,0.0,0.0,0.0,,,,,1.0296713,119.9749016,,,,,0.0,0.0
CKT_4799_01085,42737744,12.0,0.0,0.0,0.0,0.0,0.0,0.0,0.0,0.0,0.0,0.0,0.0,0.0,0.0,0.0,0.0,0.0,0.0,0.0,,,,,1.0295608,119.9767617,,,,,0.0,0.0
CKT_4799_01085,164505639,12.0,0.0,0.0,0.0,0.0,0.0,0.0,0.0,0.0,0.0,0.0,0.0,0.0,0.0,0.0,0.0,0.0,0.0,0.0,,,,,1.0295601,119.976769,,,,,0.0,0.0
CKT_4799_01085,173362390,12.0,0.0,0.0,0.0,0.0,0.0,0.0,0.0,0.0,0.0,0.0,0.0,0.0,0.0,0.0,0.0,0.0,0.0,0.0,1.0297636,-0.0257287,1.0298563,-120.022311,1.0297704,119.9745337,0.0,-0.0,0.0,180.0,0.0,0.0
CKT_4799_01085,173362420,12.0,0.0,0.0,0.0,0.0,0.0,0.0,0.0,0.0,0.0,0.0,0.0,0.0,0.0,0.0,0.0,0.0,0.0,0.0,1.0297622,-0.0257133,1.029856,-120.0223076,1.02977,119.9745371,0.0,-0.0,0.0,180.0,0.0,0.0
CKT_4799_01085,176736311,12.0,0.0,0.0,0.0,0.0,0.0,0.0,0.0,0.0,0.0,0.0,0.0,0.0,0.0,0.0,0.0,0.0,0.0,0.0,1.0294537,-0.029632,,,,,0.0,-0.0,,,,
CKT_4799_01085,176736353,12.0,0.0,0.0,0.0,0.0,0.0,0.0,0.0,0.0,0.0,0.0,0.0,0.0,0.0,0.0,0.0,0.0,0.0,0.0,1.0294497,-0.0296866,,,,,0.0,-0.0,,,,
CKT_4799_01085,42786361,12.0,0.0,0.0,0.0,0.0,0.0,0.0,0.0,0.0,0.0,0.0,0.0,0.0,0.0,0.0,0.0,0.0,0.0,0.0,,,1.0292873,-120.0204699,,,,,0.0,180.0,,
CKT_4799_01085,180246971,12.0,0.0,0.0,0.0,0.0,0.0,0.0,0.0,0.0,0.0,0.0,0.0,0.0,0.0,0.0,0.0,0.0,0.0,0.0,,,1.0291803,-120.0192656,,,,,0.0,180.0,,
CKT_4799_01085,42735337,12.0,0.0,0.0,0.0,0.0,0.0,0.0,0.0,0.0,0.0,0.0,0.0,0.0,0.0,0.0,0.0,0.0,0.0,0.0,,,,,1.0289917,119.9790159,,,,,0.0,0.0
CKT_4799_01085,180247007,12.0,0.0,0.0,0.0,0.0,0.0,0.0,0.0,0.0,0.0,0.0,0.0,0.0,0.0,0.0,0.0,0.0,0.0,0.0,,,,,1.0289906,119.979028,,,,,0.0,0.0
CKT_4799_01085,295603007,12.0,0.0,0.0,0.0,0.0,0.0,0.0,0.0,0.0,0.0,0.0,0.0,0.0,0.0,0.0,0.0,0.0,0.0,0.0,1.0299333,-0.0079973,,,1.029934,119.9920655,0.0,-0.0,,,0.0,0.0
CKT_4799_01085,296014710,12.0,0.0,0.0,0.0,0.0,0.0,0.0,0.0,0.0,0.0,0.0,0.0,0.0,0.0,0.0,0.0,0.0,0.0,0.0,1.0299333,-0.0079973,,,1.029934,119.9920655,0.0,-0.0,,,0.0,0.0
CKT_4799_01085,264805166,12.0,0.0,0.0,0.0,0.0,0.0,0.0,0.0,0.0,0.0,0.0,0.0,0.0,0.0,0.0,0.0,0.0,0.0,0.0,1.0299333,-0.0079973,1.0299626,-120.0069076,,,0.0,-0.0,0.0,180.0,,
CKT_4799_01085,296014910,12.0,0.0,0.0,0.0,0.0,0.0,0.0,0.0,0.0,0.0,0.0,0.0,0.0,0.0,0.0,0.0,0.0,0.0,0.0,1.0299333,-0.0079973,1.0299626,-120.0069076,,,0.0,-0.0,0.0,180.0,,
CKT_4799_01085,295602918,12.0,0.0,0.0,0.0,0.0,0.0,0.0,0.0,0.0,0.0,0.0,0.0,0.0,0.0,0.0,0.0,0.0,0.0,0.0,1.0299333,-0.0079973,1.0299626,-120.0069078,,,0.0,-0.0,0.0,180.0,,
CKT_4799_01085,296014960,12.0,0.0,0.0,0.0,0.0,0.0,0.0,0.0,0.0,0.0,0.0,0.0,0.0,0.0,0.0,0.0,0.0,0.0,0.0,1.0299333,-0.0079973,1.0299626,-120.0069078,,,0.0,-0.0,0.0,180.0,,
CKT_4799_01085,304730124,12.0,0.0,0.0,0.0,0.0,0.0,0.0,0.0,0.0,0.0,0.0,0.0,0.0,0.0,0.0,0.0,0.0,0.0,0.0,,,1.0299626,-120.0069078,1.029934,119.9920655,,,0.0,180.0,0.0,0.0
CKT_4799_01085,304730494,12.0,0.0,0.0,0.0,0.0,0.0,0.0,0.0,0.0,0.0,0.0,0.0,0.0,0.0,0.0,0.0,0.0,0.0,0.0,,,1.0299626,-120.0069078,1.029934,119.9920655,,,0.0,180.0,0.0,0.0
CKT_4799_01085,309071811,12.0,0.0,0.0,0.0,0.0,0.0,0.0,0.0,0.0,0.0,0.0,0.0,0.0,0.0,0.0,0.0,0.0,0.0,0.0,1.0299333,-0.0079971,1.0299626,-120.0069079,,,0.0,-0.0,0.0,180.0,,
CKT_4799_01085,309071836,12.0,0.0,0.0,0.0,0.0,0.0,0.0,0.0,0.0,0.0,0.0,0.0,0.0,0.0,0.0,0.0,0.0,0.0,0.0,1.0299333,-0.0079971,1.0299626,-120.0069079,,,0.0,-0.0,0.0,180.0,,
...