networks/new/results/CKT_4799_01085_mc_loadflow_results.csv
CKT_KEY,NODE_ID,BASE_VOLTAGE,PGEN,QGEN,PGEN_A,PGEN_B,PGEN_C,QGEN_A,QGEN_B,QGEN_C,PCAP,QCAP,PLOAD,QLOAD,PLOAD_A,PLOAD_B,PLOAD_C,QLOAD_A,QLOAD_B,QLOAD_C,VA,VA_ANGLE,VB,VB_ANGLE,VC,VC_ANGLE,IA,IA_ANGLE,IB,IB_ANGLE,IC,IC_ANGLE
CKT_4799_01085,42761687,12.0,0.0,0.0,0.0,0.0,0.0,0.0,0.0,0.0,0.0,0.0,0.0,0.0,0.0,0.0,0.0,0.0,0.0,0.0,,,1.0300283,-120.0150201,,,,,0.0,-33.3443757,,
CKT_4799_01085,287568177,12.0,0.0,0.0,0.0,0.0,0.0,0.0,0.0,0.0,0.0,0.0,0.0,0.0,0.0,0.0,0.0,0.0,0.0,0.0,1.0300304,-0.0046501,1.0300371,-120.0043819,,,9e-07,165.9637565,8e-07,-180.0,,
CKT_4799_01085,-99999942786290,0.069284,0.0,0.0,0.0,0.0,0.0,0.0,0.0,0.0,0.0,0.0,0.0,0.0,0.0,0.0,0.0,0.0,0.0,0.0,,,,,1.7818919,119.9581961,,,,,418.8806892,96.741211
CKT_4799_01085,42761234,12.0,0.0,0.0,0.0,0.0,0.0,0.0,0.0,0.0,0.0,0.0,0.0,0.0,0.0,0.0,0.0,0.0,0.0,0.0,,,1.0300306,-120.0149917,1.0300245,119.9843553,,,4e-07,-44.4364531,1e-07,59.0362434
CKT_4799_01085,-99999958757960,0.069284,0.0,0.0,0.0,0.0,0.0,0.0,0.0,0.0,0.0,0.0,0.0,0.0,0.0,0.0,0.0,0.0,0.0,0.0,,,,,1.7831761,119.9765459,,,,,90.0357862,99.7723949
CKT_4799_01085,58770468,12.0,0.0,0.0,0.0,0.0,0.0,0.0,0.0,0.0,0.0,0.0,0.0,0.0,0.0,0.0,0.0,0.0,0.0,0.0,1.0300073,-0.014458,,,,,0.0,-128.2958885,,,,
CKT_4799_01085,-99999942760574,0.069284,0.0,0.0,0.0,0.0,0.0,0.0,0.0,0.0,0.0,0.0,0.0,0.0,0.0,0.0,0.0,0.0,0.0,0.0,,,1.7836755,-120.0202637,,,,,69.5651424,-138.9845309,,
CKT_4799_01085,42737159,12.0,0.0,0.0,0.0,0.0,0.0,0.0,0.0,0.0,0.0,0.0,0.0,0.0,0.0,0.0,0.0,0.0,0.0,0.0,1.0299416,-0.0143859,,,,,0.0,161.6046929,,,,
CKT_4799_01085,-99999958787139,0.069284,0.0,0.0,0.0,0.0,0.0,0.0,0.0,0.0,0.0,0.0,0.0,0.0,0.0,0.0,0.0,0.0,0.0,0.0,1.7810968,-0.0491955,,,,,558.0501695,-23.0460732,,,,
CKT_4799_01085,295603094,12.0,0.0,0.0,0.0,0.0,0.0,0.0,0.0,0.0,0.0,0.0,0.0,0.0,0.0,0.0,0.0,0.0,0.0,0.0,1.0300304,-0.00465,1.0300371,-120.004382,1.0300299,119.9953457,0.0,-20.5560452,0.0,-153.4349488,0.0,-180.0
CKT_4799_01085,58787139,12.0,0.0,0.0,0.0,0.0,0.0,0.0,0.0,0.0,0.0,0.0,0.0,0.0,0.0,0.0,0.0,0.0,0.0,0.0,1.0299403,-0.0133793,,,,,0.0,13.1264495,,,,
CKT_4799_01085,58758688,12.0,0.0,0.0,0.0,0.0,0.0,0.0,0.0,0.0,0.0,0.0,0.0,0.0,0.0,0.0,0.0,0.0,0.0,0.0,1.0300519,-0.0146398,,,,,0.0,-153.4972831,,,,
CKT_4799_01085,42711629,12.0,0.0,0.0,0.0,0.0,0.0,0.0,0.0,0.0,0.0,0.0,0.0,0.0,0.0,0.0,0.0,0.0,0.0,0.0,1.0300829,-0.0148051,1.0301045,-120.0139776,1.0300833,119.9851875,2e-07,28.3752425,3e-07,-135.0,4e-07,90.0
CKT_4799_01085,287568309,12.0,0.0,0.0,0.0,0.0,0.0,0.0,0.0,0.0,0.0,0.0,0.0,0.0,0.0,0.0,0.0,0.0,0.0,0.0,1.0300304,-0.0046503,1.0300371,-120.0043822,,,2.5e-06,-47.9903346,1e-06,88.0408806,,
CKT_4799_01085,42760738,12.0,0.0,0.0,0.0,0.0,0.0,0.0,0.0,0.0,0.0,0.0,0.0,0.0,0.0,0.0,0.0,0.0,0.0,0.0,,,1.0300263,-120.0150596,,,,,0.0,-81.9968029,,
CKT_4799_01085,-999999156967186,0.069284,0.0,0.0,0.0,0.0,0.0,0.0,0.0,0.0,0.0,0.0,0.0,0.0,0.0,0.0,0.0,0.0,0.0,0.0,,,1.7832278,-120.0231366,,,,,178.9539928,-147.8007042,,
CKT_4799_01085,42761769,12.0,0.0,0.0,0.0,0.0,0.0,0.0,0.0,0.0,0.0,0.0,0.0,0.0,0.0,0.0,0.0,0.0,0.0,0.0,,,,,1.0300181,119.9842657,,,,,0.0,46.7182326
CKT_4799_01085,-99999942736862,0.069284,0.0,0.0,0.0,0.0,0.0,0.0,0.0,0.0,0.0,0.0,0.0,0.0,0.0,0.0,0.0,0.0,0.0,0.0,1.7829257,-0.0303464,,,,,211.8151465,-21.5852448,,,,
CKT_4799_01085,309071885,12.0,0.0,0.0,0.0,0.0,0.0,0.0,0.0,0.0,0.0,0.0,0.0,0.0,0.0,0.0,0.0,0.0,0.0,0.0,1.0300304,-0.0046502,1.0300371,-120.0043825,,,2e-07,3.7502824,2e-07,-176.2497176,,
CKT_4799_01085,42761066,12.0,0.0,0.0,0.0,0.0,0.0,0.0,0.0,0.0,0.0,0.0,0.0,0.0,0.0,0.0,0.0,0.0,0.0,0.0,1.0299951,-0.0160005,,,,,0.0,-165.9713772,,,,
CKT_4799_01085,295945846,12.0,0.0,0.0,0.0,0.0,0.0,0.0,0.0,0.0,0.0,0.0,0.0,0.0,0.0,0.0,0.0,0.0,0.0,0.0,1.0300304,-0.00465,1.0300371,-120.0043818,,,3.1e-06,-30.2334994,3e-07,-46.6389972,,
CKT_4799_01085,42711142,12.0,0.0,0.0,0.0,0.0,0.0,0.0,0.0,0.0,0.0,0.0,0.0,0.0,0.0,0.0,0.0,0.0,0.0,0.0,,,,,1.0300442,119.9856029,,,,,0.0,-93.5283117
CKT_4799_01085,165186901,12.0,0.0,0.0,0.0,0.0,0.0,0.0,0.0,0.0,0.0,0.0,0.0,0.0,0.0,0.0,0.0,0.0,0.0,0.0,1.0300033,-0.0005085,1.0300041,-120.0004793,1.0300033,119.9994909,0.0,-78.7850853,0.0,62.7004278,0.0,-85.2363583
CKT_4799_01085,58736441,12.0,0.0,0.0,0.0,0.0,0.0,0.0,0.0,0.0,0.0,0.0,0.0,0.0,0.0,0.0,0.0,0.0,0.0,0.0,1.0300871,-0.0149078,1.0301139,-120.0138744,1.0300841,119.9850396,1e-07,-168.8048886,3e-07,109.515873,2e-07,96.5922026
CKT_4799_01085,58767916,12.0,0.0,0.0,0.0,0.0,0.0,0.0,0.0,0.0,0.0,0.0,0.0,0.0,0.0,0.0,0.0,0.0,0.0,0.0,,,,,1.0300505,119.9853169,,,,,0.0,-34.9718985
CKT_4799_01085,288883581,12.0,0.0,0.0,0.0,0.0,0.0,0.0,0.0,0.0,0.0,0.0,0.0,0.0,0.0,0.0,0.0,0.0,0.0,0.0,,,1.0300606,-120.0136511,,,,,0.0,-135.0,,
CKT_4799_01085,-99999942737088,0.069284,0.0,0.0,0.0,0.0,0.0,0.0,0.0,0.0,0.0,0.0,0.0,0.0,0.0,0.0,0.0,0.0,0.0,0.0,,,,,1.7814851,119.9572278,,,,,300.3930482,97.1378551
CKT_4799_01085,58787309,12.0,0.0,0.0,0.0,0.0,0.0,0.0,0.0,0.0,0.0,0.0,0.0,0.0,0.0,0.0,0.0,0.0,0.0,0.0,,,1.0299877,-120.0130737,,,,,0.0,-0.0,,
CKT_4799_01085,42734937,12.0,0.0,0.0,0.0,0.0,0.0,0.0,0.0,0.0,0.0,0.0,0.0,0.0,0.0,0.0,0.0,0.0,0.0,0.0,,,1.02985,-120.0126126,,,,,0.0,45.0,,
CKT_4799_01085,42761243,12.0,0.0,0.0,0.0,0.0,0.0,0.0,0.0,0.0,0.0,0.0,0.0,0.0,0.0,0.0,0.0,0.0,0.0,0.0,,,1.0300306,-120.0149917,1.0300245,119.9843553,,,4e-07,-44.4364531,1e-07,59.0362434
CKT_4799_01085,241184690,12.0,0.0,0.0,0.0,0.0,0.0,0.0,0.0,0.0,0.0,0.0,0.0,0.0,0.0,0.0,0.0,0.0,0.0,0.0,,,1.0300371,-120.0043818,1.0300299,119.9953459,,,4e-07,180.0,8e-07,97.1250163
CKT_4799_01085,259442918,12.0,0.0,0.0,0.0,0.0,0.0,0.0,0.0,0.0,0.0,0.0,0.0,0.0,0.0,0.0,0.0,0.0,0.0,0.0,1.0300305,-0.0046496,1.0300371,-120.0043819,1.0300299,119.9953458,0.0,-180.0,0.0,180.0,0.0,0.0
CKT_4799_01085,42760574,12.0,0.0,0.0,0.0,0.0,0.0,0.0,0.0,0.0,0.0,0.0,0.0,0.0,0.0,0.0,0.0,0.0,0.0,0.0,,,1.0300281,-120.0150334,,,,,0.0,173.0845345,,
CKT_4799_01085,180246971,12.0,0.0,0.0,0.0,0.0,0.0,0.0,0.0,0.0,0.0,0.0,0.0,0.0,0.0,0.0,0.0,0.0,0.0,0.0,,,1.0299174,-120.0133203,,,,,0.0,-180.0,,
CKT_4799_01085,89685699,12.0,0.0,0.0,0.0,0.0,0.0,0.0,0.0,0.0,0.0,0.0,0.0,0.0,0.0,0.0,0.0,0.0,0.0,0.0,,,,,1.0300744,119.9852258,,,,,0.0,90.0
CKT_4799_01085,254159278,12.0,0.0,0.0,0.0,0.0,0.0,0.0,0.0,0.0,0.0,0.0,0.0,0.0,0.0,0.0,0.0,0.0,0.0,0.0,1.0299711,-0.0140404,,,,,0.0,-180.0,,,,
CKT_4799_01085,58785923,12.0,0.0,0.0,0.0,0.0,0.0,0.0,0.0,0.0,0.0,0.0,0.0,0.0,0.0,0.0,0.0,0.0,0.0,0.0,,,,,1.0300663,119.9852485,,,,,1e-07,-159.4440071
CKT_4799_01085,42709374,12.0,0.0,0.0,0.0,0.0,0.0,0.0,0.0,0.0,0.0,0.0,0.0,0.0,0.0,0.0,0.0,0.0,0.0,0.0,1.029995,-0.0160012,,,,,1e-07,142.499693,,,,
CKT_4799_01085,-99999942735338,0.069284,0.0,0.0,0.0,0.0,0.0,0.0,0.0,0.0,0.0,0.0,0.0,0.0,0.0,0.0,0.0,0.0,0.0,0.0,,,,,1.7802288,119.9411764,,,,,707.1864505,96.7866563
CKT_4799_01085,42761931,12.0,0.0,0.0,0.0,0.0,0.0,0.0,0.0,0.0,0.0,0.0,0.0,0.0,0.0,0.0,0.0,0.0,0.0,0.0,,,,,1.0300138,119.9842046,,,,,0.0,40.870829
CKT_4799_01085,58768060,12.0,0.0,0.0,0.0,0.0,0.0,0.0,0.0,0.0,0.0,0.0,0.0,0.0,0.0,0.0,0.0,0.0,0.0,0.0,,,,,1.0300434,119.98536,,,,,0.0,143.6876505
CKT_4799_01085,165791327,12.0,0.0,0.0,0.0,0.0,0.0,0.0,0.0,0.0,0.0,0.0,0.0,0.0,0.0,0.0,0.0,0.0,0.0,0.0,1.0300897,-0.0148008,,,,,0.0,157.490178,,,,
CKT_4799_01085,164505638,12.0,0.0,0.0,0.0,0.0,0.0,0.0,0.0,0.0,0.0,0.0,0.0,0.0,0.0,0.0,0.0,0.0,0.0,0.0,,,,,1.0300111,119.985954,,,,,0.0,-45.0
CKT_4799_01085,156967699,12.0,0.0,0.0,0.0,0.0,0.0,0.0,0.0,0.0,0.0,0.0,0.0,0.0,0.0,0.0,0.0,0.0,0.0,0.0,1.0300848,-0.0148253,1.0301055,-120.0139876,1.0300843,119.9851774,2e-07,26.5650512,2e-07,63.4349962,2e-07,150.2551187
CKT_4799_01085,295603015,12.0,0.0,0.0,0.0,0.0,0.0,0.0,0.0,0.0,0.0,0.0,0.0,0.0,0.0,0.0,0.0,0.0,0.0,0.0,1.0300304,-0.0046503,,,1.0300299,119.9953454,1.2e-06,-126.1069631,,,2.6e-06,-69.146468
CKT_4799_01085,42734118,12.0,0.0,0.0,0.0,0.0,0.0,0.0,0.0,0.0,0.0,0.0,0.0,0.0,0.0,0.0,0.0,0.0,0.0,0.0,1.029966,-0.0140081,,,,,0.0,174.2055942,,,,
CKT_4799_01085,42710595,12.0,0.0,0.0,0.0,0.0,0.0,0.0,0.0,0.0,0.0,0.0,0.0,0.0,0.0,0.0,0.0,0.0,0.0,0.0,1.0300851,-0.0148279,1.0301057,-120.0139896,1.0300844,119.9851762,2e-07,-45.7848246,0.0,-26.5650512,1e-07,-70.3461759
CKT_4799_01085,42710338,12.0,0.0,0.0,0.0,0.0,0.0,0.0,0.0,0.0,0.0,0.0,0.0,0.0,0.0,0.0,0.0,0.0,0.0,0.0,1.0300872,-0.0144005,1.0301084,-120.0135478,1.0300856,119.9855801,1e-07,116.5650512,1e-07,26.5650511,0.0,180.0
CKT_4799_01085,42734424,12.0,0.0,0.0,0.0,0.0,0.0,0.0,0.0,0.0,0.0,0.0,0.0,0.0,0.0,0.0,0.0,0.0,0.0,0.0,1.0300288,-0.0155247,1.0300477,-120.0147551,1.0300344,119.9844938,0.0,116.5650511,0.0,-76.8835638,0.0,90.0
CKT_4799_01085,296014810,12.0,0.0,0.0,0.0,0.0,0.0,0.0,0.0,0.0,0.0,0.0,0.0,0.0,0.0,0.0,0.0,0.0,0.0,0.0,1.0300304,-0.0046503,,,1.0300299,119.9953454,1.2e-06,2.6025622,,,1.1e-06,91.4320962
CKT_4799_01085,-99999942711893,0.069284,0.0,0.0,0.0,0.0,0.0,0.0,0.0,0.0,0.0,0.0,0.0,0.0,0.0,0.0,0.0,0.0,0.0,0.0,1.7815874,-0.0384791,,,,,474.1122572,-27.8170017,,,,
CKT_4799_01085,309071978,12.0,0.0,0.0,0.0,0.0,0.0,0.0,0.0,0.0,0.0,0.0,0.0,0.0,0.0,0.0,0.0,0.0,0.0,0.0,1.0300304,-0.0046502,1.0300371,-120.0043825,,,2e-07,7.1250163,0.0,180.0,,
CKT_4799_01085,287568822,12.0,0.0,0.0,0.0,0.0,0.0,0.0,0.0,0.0,0.0,0.0,0.0,0.0,0.0,0.0,0.0,0.0,0.0,0.0,1.0300304,-0.0046503,1.0300371,-120.0043822,,,4e-07,-90.0,8e-07,-90.0,,
CKT_4799_01085,58786995,12.0,0.0,0.0,0.0,0.0,0.0,0.0,0.0,0.0,0.0,0.0,0.0,0.0,0.0,0.0,0.0,0.0,0.0,0.0,1.0299701,-0.0137174,,,,,0.0,179.9847356,,,,
CKT_4799_01085,176736426,12.0,0.0,0.0,0.0,0.0,0.0,0.0,0.0,0.0,0.0,0.0,0.0,0.0,0.0,0.0,0.0,0.0,0.0,0.0,1.029995,-0.0160012,,,,,0.0,-180.0,,,,
CKT_4799_01085,295358406,12.0,0.0,0.0,0.0,0.0,0.0,0.0,0.0,0.0,0.0,0.0,0.0,0.0,0.0,0.0,0.0,0.0,0.0,0.0,1.0300304,-0.0046502,1.0300371,-120.0043822,,,3.3e-06,-169.5355408,9e-07,88.8411222,,
CKT_4799_01085,264804729,12.0,0.0,0.0,0.0,0.0,0.0,0.0,0.0,0.0,0.0,0.0,0.0,0.0,0.0,0.0,0.0,0.0,0.0,0.0,1.0300304,-0.0046499,1.0300371,-120.0043819,1.0300299,119.9953457,0.0,-0.0,0.0,14.0362435,0.0,-0.0
CKT_4799_01085,42808516,12.0,0.0,0.0,0.0,0.0,0.0,0.0,0.0,0.0,0.0,0.0,0.0,0.0,0.0,0.0,0.0,0.0,0.0,0.0,1.0300833,-0.014909,,,,,0.0,-156.8014095,,,,
CKT_4799_01085,165791328,12.0,0.0,0.0,0.0,0.0,0.0,0.0,0.0,0.0,0.0,0.0,0.0,0.0,0.0,0.0,0.0,0.0,0.0,0.0,1.0300897,-0.0148008,,,,,0.0,157.490178,,,,
CKT_4799_01085,-99999942737664,0.069284,0.0,0.0,0.0,0.0,0.0,0.0,0.0,0.0,0.0,0.0,0.0,0.0,0.0,0.0,0.0,0.0,0.0,0.0,,,,,1.781477,119.9608509,,,,,493.5633505,92.1805352
CKT_4799_01085,42760396,12.0,0.0,0.0,0.0,0.0,0.0,0.0,0.0,0.0,0.0,0.0,0.0,0.0,0.0,0.0,0.0,0.0,0.0,0.0,1.0300066,-0.0158155,,,,,0.0,153.4349488,,,,
CKT_4799_01085,42736862,12.0,0.0,0.0,0.0,0.0,0.0,0.0,0.0,0.0,0.0,0.0,0.0,0.0,0.0,0.0,0.0,0.0,0.0,0.0,1.0300012,-0.0159105,,,,,1e-07,69.5706596,,,,
CKT_4799_01085,161559163,12.0,0.0,0.0,0.0,0.0,0.0,0.0,0.0,0.0,0.0,0.0,0.0,0.0,0.0,0.0,0.0,0.0,0.0,0.0,1.0300017,-0.0002539,1.030002,-120.0002393,1.0300016,119.9997459,0.0,-180.0,0.0,90.0,0.0,-75.9637565
CKT_4799_01085,264804987,12.0,0.0,0.0,0.0,0.0,0.0,0.0,0.0,0.0,0.0,0.0,0.0,0.0,0.0,0.0,0.0,0.0,0.0,0.0,1.0300304,-0.00465,1.0300371,-120.0043818,1.0300299,119.9953457,0.0,-180.0,1.4e-06,98.7461623,1e-07,-116.5650512
CKT_4799_01085,147808539,12.0,0.0,0.0,0.0,0.0,0.0,0.0,0.0,0.0,0.0,0.0,0.0,0.0,0.0,0.0,0.0,0.0,0.0,0.0,1.0299797,-0.0148871,,,,,0.0,-180.0,,,,
CKT_4799_01085,-999999295358330,0.069284,0.0,0.0,0.0,0.0,0.0,0.0,0.0,0.0,0.0,0.0,0.0,0.0,0.0,0.0,0.0,0.0,0.0,0.0,1.0300324,29.995591,1.0300324,-150.004409,,,0.0,-90.0,0.0,-90.0,,
CKT_4799_01085,42761218,12.0,0.0,0.0,0.0,0.0,0.0,0.0,0.0,0.0,0.0,0.0,0.0,0.0,0.0,0.0,0.0,0.0,0.0,0.0,,,1.0300306,-120.0149917,1.0300245,119.9843553,,,4e-07,-44.4364531,1e-07,59.0362434
CKT_4799_01085,287568972,12.0,0.0,0.0,0.0,0.0,0.0,0.0,0.0,0.0,0.0,0.0,0.0,0.0,0.0,0.0,0.0,0.0,0.0,0.0,1.0300304,-0.0046503,1.0300371,-120.0043822,1.0300299,119.9953457,2e-07,0.0,2e-07,180.0,0.0,-104.0362435
CKT_4799_01085,161559195,12.0,0.0,0.0,0.0,0.0,0.0,0.0,0.0,0.0,0.0,0.0,0.0,0.0,0.0,0.0,0.0,0.0,0.0,0.0,1.0300017,-0.0002539,1.030002,-120.0002393,1.0300016,119.9997459,0.0,-180.0,0.0,90.0,0.0,-75.9637565
CKT_4799_01085,295358398,12.0,0.0,0.0,0.0,0.0,0.0,0.0,0.0,0.0,0.0,0.0,0.0,0.0,0.0,0.0,0.0,0.0,0.0,0.0,1.0300304,-0.0046502,1.0300371,-120.0043822,,,3.3e-06,-169.5355408,9e-07,88.8411222,,
CKT_4799_01085,-99999958758392,0.069284,0.0,0.0,0.0,0.0,0.0,0.0,0.0,0.0,0.0,0.0,0.0,0.0,0.0,0.0,0.0,0.0,0.0,0.0,1.7809719,-0.0537594,,,,,405.2860901,-22.8737451,,,,
CKT_4799_01085,190934487,12.0,0.0,0.0,0.0,0.0,0.0,0.0,0.0,0.0,0.0,0.0,0.0,0.0,0.0,0.0,0.0,0.0,0.0,0.0,,,1.0301003,-120.0137302,,,,,0.0,-116.5650512,,
CKT_4799_01085,259443346,12.0,0.0,0.0,0.0,0.0,0.0,0.0,0.0,0.0,0.0,0.0,0.0,0.0,0.0,0.0,0.0,0.0,0.0,0.0,1.0300305,-0.0046494,1.0300371,-120.0043818,1.0300299,119.9953458,0.0,135.0,0.0,-90.0,0.0,63.4349488
CKT_4799_01085,287568308,12.0,0.0,0.0,0.0,0.0,0.0,0.0,0.0,0.0,0.0,0.0,0.0,0.0,0.0,0.0,0.0,0.0,0.0,0.0,1.0300304,-0.0046503,1.0300371,-120.0043822,,,2.5e-06,-47.9903346,1e-06,88.0408806,,
CKT_4799_01085,196405115,12.0,0.0,0.0,0.0,0.0,0.0,0.0,0.0,0.0,0.0,0.0,0.0,0.0,0.0,0.0,0.0,0.0,0.0,0.0,1.030084,-0.0148888,1.030114,-120.0138772,1.0300824,119.9850527,1e-07,-10.8855271,1e-07,-101.3099325,1e-07,63.4349488
CKT_4799_01085,42710925,12.0,0.0,0.0,0.0,0.0,0.0,0.0,0.0,0.0,0.0,0.0,0.0,0.0,0.0,0.0,0.0,0.0,0.0,0.0,,,1.0300368,-120.0132582,,,,,0.0,-39.7009537,,
CKT_4799_01085,164305582,12.0,0.0,0.0,0.0,0.0,0.0,0.0,0.0,0.0,0.0,0.0,0.0,0.0,0.0,0.0,0.0,0.0,0.0,0.0,,,1.0301109,-120.0138422,,,,,0.0,51.0541919,,
CKT_4799_01085,309071598,12.0,0.0,0.0,0.0,0.0,0.0,0.0,0.0,0.0,0.0,0.0,0.0,0.0,0.0,0.0,0.0,0.0,0.0,0.0,1.0300304,-0.0046502,1.0300371,-120.0043825,,,3e-07,168.231711,2e-07,15.5241109,,
CKT_4799_01085,-77777742711821,12.0,0.0,0.0,0.0,0.0,0.0,0.0,0.0,0.0,0.0,0.0,0.0,0.0,0.0,0.0,0.0,0.0,0.0,0.0,,,1.0300737,-120.013765,,,,,0.0,2.5320641,,
CKT_4799_01085,42736656,12.0,0.0,0.0,0.0,0.0,0.0,0.0,0.0,0.0,0.0,0.0,0.0,0.0,0.0,0.0,0.0,0.0,0.0,0.0,1.0300113,-0.0157523,1.0300312,-120.0149835,1.0300249,119.9843611,0.0,-26.5650512,0.0,7.1250163,0.0,180.0
CKT_4799_01085,58767772,12.0,0.0,0.0,0.0,0.0,0.0,0.0,0.0,0.0,0.0,0.0,0.0,0.0,0.0,0.0,0.0,0.0,0.0,0.0,,,,,1.0300364,119.9854372,,,,,0.0,-86.4141958
CKT_4799_01085,-99999942761841,0.069284,0.0,0.0,0.0,0.0,0.0,0.0,0.0,0.0,0.0,0.0,0.0,0.0,0.0,0.0,0.0,0.0,0.0,0.0,,,,,1.7816368,119.9542386,,,,,316.0372173,96.6263802
CKT_4799_01085,42737303,12.0,0.0,0.0,0.0,0.0,0.0,0.0,0.0,0.0,0.0,0.0,0.0,0.0,0.0,0.0,0.0,0.0,0.0,0.0,1.0299109,-0.0139581,,,,,0.0,150.2221649,,,,
CKT_4799_01085,42761768,12.0,0.0,0.0,0.0,0.0,0.0,0.0,0.0,0.0,0.0,0.0,0.0,0.0,0.0,0.0,0.0,0.0,0.0,0.0,,,,,1.0300181,119.9842657,,,,,0.0,46.7182326
CKT_4799_01085,58816108,12.0,0.0,0.0,0.0,0.0,0.0,0.0,0.0,0.0,0.0,0.0,0.0,0.0,0.0,0.0,0.0,0.0,0.0,0.0,1.0300897,-0.0148009,1.0301117,-120.0138471,1.0300856,119.9851509,0.0,14.0362435,0.0,-165.9637565,0.0,-180.0
CKT_4799_01085,42786226,12.0,0.0,0.0,0.0,0.0,0.0,0.0,0.0,0.0,0.0,0.0,0.0,0.0,0.0,0.0,0.0,0.0,0.0,0.0,,,,,1.0298417,119.9865213,,,,,0.0,72.4054112
CKT_4799_01085,58786839,12.0,0.0,0.0,0.0,0.0,0.0,0.0,0.0,0.0,0.0,0.0,0.0,0.0,0.0,0.0,0.0,0.0,0.0,0.0,1.029976,-0.0137696,,,,,0.0,143.1301023,,,,
CKT_4799_01085,242905535,12.0,0.0,0.0,0.0,0.0,0.0,0.0,0.0,0.0,0.0,0.0,0.0,0.0,0.0,0.0,0.0,0.0,0.0,0.0,1.0300851,-0.0149318,1.0301059,-120.0140862,1.030085,119.9850863,0.0,-45.0,0.0,-0.0,0.0,-53.1301024
CKT_4799_01085,42760724,12.0,0.0,0.0,0.0,0.0,0.0,0.0,0.0,0.0,0.0,0.0,0.0,0.0,0.0,0.0,0.0,0.0,0.0,0.0,,,1.0300264,-120.0150589,,,,,0.0,90.0,,
CKT_4799_01085,58786752,12.0,0.0,0.0,0.0,0.0,0.0,0.0,0.0,0.0,0.0,0.0,0.0,0.0,0.0,0.0,0.0,0.0,0.0,0.0,1.0299521,-0.0135088,,,,,0.0,-13.9690597,,,,
CKT_4799_01085,180246943,12.0,0.0,0.0,0.0,0.0,0.0,0.0,0.0,0.0,0.0,0.0,0.0,0.0,0.0,0.0,0.0,0.0,0.0,0.0,,,1.0299468,-120.013626,,,,,0.0,180.0,,
CKT_4799_01085,58769883,12.0,0.0,0.0,0.0,0.0,0.0,0.0,0.0,0.0,0.0,0.0,0.0,0.0,0.0,0.0,0.0,0.0,0.0,0.0,1.0300279,-0.0144893,,,,,0.0,-153.3052055,,,,
CKT_4799_01085,42734388,12.0,0.0,0.0,0.0,0.0,0.0,0.0,0.0,0.0,0.0,0.0,0.0,0.0,0.0,0.0,0.0,0.0,0.0,0.0,1.0300288,-0.0155247,1.0300477,-120.0147551,1.0300344,119.9844938,0.0,116.5650511,0.0,-76.8835638,0.0,90.0
CKT_4799_01085,42733925,12.0,0.0,0.0,0.0,0.0,0.0,0.0,0.0,0.0,0.0,0.0,0.0,0.0,0.0,0.0,0.0,0.0,0.0,0.0,1.0300839,-0.0149186,1.0301046,-120.0140721,1.0300837,119.9850995,0.0,-3.9661387,0.0,167.9459404,0.0,-117.2629706
CKT_4799_01085,42761134,12.0,0.0,0.0,0.0,0.0,0.0,0.0,0.0,0.0,0.0,0.0,0.0,0.0,0.0,0.0,0.0,0.0,0.0,0.0,,,1.0300281,-120.0150264,,,,,0.0,180.0,,
CKT_4799_01085,58832178,12.0,0.0,0.0,0.0,0.0,0.0,0.0,0.0,0.0,0.0,0.0,0.0,0.0,0.0,0.0,0.0,0.0,0.0,0.0,,,,,1.030087,119.9851295,,,,,0.0,-31.7753068
CKT_4799_01085,42735641,12.0,0.0,0.0,0.0,0.0,0.0,0.0,0.0,0.0,0.0,0.0,0.0,0.0,0.0,0.0,0.0,0.0,0.0,0.0,,,,,1.0298518,119.9864202,,,,,0.0,-0.0
CKT_4799_01085,42735428,12.0,0.0,0.0,0.0,0.0,0.0,0.0,0.0,0.0,0.0,0.0,0.0,0.0,0.0,0.0,0.0,0.0,0.0,0.0,1.030017,-0.0154195,,,,,0.0,168.7354932,,,,
CKT_4799_01085,42712273,12.0,0.0,0.0,0.0,0.0,0.0,0.0,0.0,0.0,0.0,0.0,0.0,0.0,0.0,0.0,0.0,0.0,0.0,0.0,1.030084,-0.0149196,1.0301047,-120.0140731,1.0300838,119.9850985,0.0,20.185803,0.0,-145.3048464,0.0,-68.5522637
CKT_4799_01085,-99999958758680,0.069284,0.0,0.0,0.0,0.0,0.0,0.0,0.0,0.0,0.0,0.0,0.0,0.0,0.0,0.0,0.0,0.0,0.0,0.0,1.778107,-0.0757642,,,,,779.9048592,-27.3152333,,,,
CKT_4799_01085,138194492,12.0,0.0,0.0,0.0,0.0,0.0,0.0,0.0,0.0,0.0,0.0,0.0,0.0,0.0,0.0,0.0,0.0,0.0,0.0,,,,,1.0300301,119.9857209,,,,,0.0,-153.289319
CKT_4799_01085,304730564,12.0,0.0,0.0,0.0,0.0,0.0,0.0,0.0,0.0,0.0,0.0,0.0,0.0,0.0,0.0,0.0,0.0,0.0,0.0,,,1.0300371,-120.0043822,1.0300299,119.9953454,,,2.7e-06,18.4349488,4e-07,-0.0
CKT_4799_01085,264805304,12.0,0.0,0.0,0.0,0.0,0.0,0.0,0.0,0.0,0.0,0.0,0.0,0.0,0.0,0.0,0.0,0.0,0.0,0.0,1.0300304,-0.00465,1.0300371,-120.0043818,,,4e-07,-0.0,4e-07,180.0,,
CKT_4799_01085,42737160,12.0,0.0,0.0,0.0,0.0,0.0,0.0,0.0,0.0,0.0,0.0,0.0,0.0,0.0,0.0,0.0,0.0,0.0,0.0,1.0299416,-0.0143859,,,,,0.0,161.6046929,,,,
CKT_4799_01085,241184638,12.0,0.0,0.0,0.0,0.0,0.0,0.0,0.0,0.0,0.0,0.0,0.0,0.0,0.0,0.0,0.0,0.0,0.0,0.0,,,1.0300371,-120.0043818,1.0300299,119.9953459,,,4e-07,34.5100389,4e-07,-61.9673398
CKT_4799_01085,309071430,12.0,0.0,0.0,0.0,0.0,0.0,0.0,0.0,0.0,0.0,0.0,0.0,0.0,0.0,0.0,0.0,0.0,0.0,0.0,1.0300304,-0.0046502,1.0300371,-120.0043825,,,1.7e-06,165.9637565,0.0,180.0,,
CKT_4799_01085,42738115,12.0,0.0,0.0,0.0,0.0,0.0,0.0,0.0,0.0,0.0,0.0,0.0,0.0,0.0,0.0,0.0,0.0,0.0,0.0,1.0300836,-0.0148121,1.0301042,-120.0139746,1.030083,119.9851894,1e-07,151.1034468,1e-07,-0.0,1e-07,-104.0362435
CKT_4799_01085,42735488,12.0,0.0,0.0,0.0,0.0,0.0,0.0,0.0,0.0,0.0,0.0,0.0,0.0,0.0,0.0,0.0,0.0,0.0,0.0,1.0299842,-0.0149465,,,,,0.0,-26.5650511,,,,
CKT_4799_01085,42761051,12.0,0.0,0.0,0.0,0.0,0.0,0.0,0.0,0.0,0.0,0.0,0.0,0.0,0.0,0.0,0.0,0.0,0.0,0.0,1.0299951,-0.0160005,,,,,0.0,-45.0,,,,
CKT_4799_01085,264805098,12.0,0.0,0.0,0.0,0.0,0.0,0.0,0.0,0.0,0.0,0.0,0.0,0.0,0.0,0.0,0.0,0.0,0.0,0.0,1.0300304,-0.00465,1.0300371,-120.0043818,,,1.2e-06,-21.7372263,5e-07,-65.3644025,,
CKT_4799_01085,58833350,12.0,0.0,0.0,0.0,0.0,0.0,0.0,0.0,0.0,0.0,0.0,0.0,0.0,0.0,0.0,0.0,0.0,0.0,0.0,,,,,1.0300393,119.9854185,,,,,0.0,0.0
CKT_4799_01085,42735510,12.0,0.0,0.0,0.0,0.0,0.0,0.0,0.0,0.0,0.0,0.0,0.0,0.0,0.0,0.0,0.0,0.0,0.0,0.0,1.0299839,-0.0149422,,,,,0.0,0.2024971,,,,
CKT_4799_01085,-99999958758320,0.069284,0.0,0.0,0.0,0.0,0.0,0.0,0.0,0.0,0.0,0.0,0.0,0.0,0.0,0.0,0.0,0.0,0.0,0.0,1.7828613,-0.0280107,,,,,145.4835805,-23.581183,,,,
CKT_4799_01085,295602833,12.0,0.0,0.0,0.0,0.0,0.0,0.0,0.0,0.0,0.0,0.0,0.0,0.0,0.0,0.0,0.0,0.0,0.0,0.0,1.0300304,-0.0046503,,,1.0300299,119.9953454,1.6e-06,-170.7764954,,,2e-06,-54.7566868
CKT_4799_01085,309072018,12.0,0.0,0.0,0.0,0.0,0.0,0.0,0.0,0.0,0.0,0.0,0.0,0.0,0.0,0.0,0.0,0.0,0.0,0.0,1.0300304,-0.0046502,1.0300371,-120.0043825,,,0.0,-180.0,0.0,180.0,,
CKT_4799_01085,295945838,12.0,0.0,0.0,0.0,0.0,0.0,0.0,0.0,0.0,0.0,0.0,0.0,0.0,0.0,0.0,0.0,0.0,0.0,0.0,1.0300304,-0.00465,1.0300371,-120.0043818,,,3.1e-06,-30.2334994,3e-07,-46.6389972,,
CKT_4799_01085,42735337,12.0,0.0,0.0,0.0,0.0,0.0,0.0,0.0,0.0,0.0,0.0,0.0,0.0,0.0,0.0,0.0,0.0,0.0,0.0,,,,,1.0298673,119.9862583,,,,,0.0,13.4134426
CKT_4799_01085,-99999942762005,0.069284,0.0,0.0,0.0,0.0,0.0,0.0,0.0,0.0,0.0,0.0,0.0,0.0,0.0,0.0,0.0,0.0,0.0,0.0,,,,,1.781977,119.9588952,,,,,269.1791486,96.4066319
CKT_4799_01085,58816082,12.0,0.0,0.0,0.0,0.0,0.0,0.0,0.0,0.0,0.0,0.0,0.0,0.0,0.0,0.0,0.0,0.0,0.0,0.0,1.0300897,-0.0148009,1.0301117,-120.0138471,1.0300856,119.9851509,0.0,14.0362435,0.0,-165.9637565,0.0,-180.0
CKT_4799_01085,42737591,12.0,0.0,0.0,0.0,0.0,0.0,0.0,0.0,0.0,0.0,0.0,0.0,0.0,0.0,0.0,0.0,0.0,0.0,0.0,,,,,1.0300369,119.9856802,,,,,0.0,-73.8629233
CKT_4799_01085,240313817,12.0,0.0,0.0,0.0,0.0,0.0,0.0,0.0,0.0,0.0,0.0,0.0,0.0,0.0,0.0,0.0,0.0,0.0,0.0,1.0300305,-0.004649,1.0300371,-120.0043817,1.0300299,119.9953458,0.0,-111.8014095,0.0,171.1193409,0.0,-102.9946168
CKT_4799_01085,42736646,12.0,0.0,0.0,0.0,0.0,0.0,0.0,0.0,0.0,0.0,0.0,0.0,0.0,0.0,0.0,0.0,0.0,0.0,0.0,1.0300113,-0.0157523,1.0300312,-120.0149835,1.0300249,119.9843611,0.0,-26.5650512,0.0,7.1250163,0.0,180.0
CKT_4799_01085,42734197,12.0,0.0,0.0,0.0,0.0,0.0,0.0,0.0,0.0,0.0,0.0,0.0,0.0,0.0,0.0,0.0,0.0,0.0,0.0,1.0300288,-0.0155245,1.0300477,-120.0147551,1.030034,119.9844967,0.0,90.0,0.0,180.0,0.0,-180.0
CKT_4799_01085,42786289,12.0,0.0,0.0,0.0,0.0,0.0,0.0,0.0,0.0,0.0,0.0,0.0,0.0,0.0,0.0,0.0,0.0,0.0,0.0,,,,,1.0300038,119.9848229,,,,,0.0,-79.2731717
CKT_4799_01085,287568846,12.0,0.0,0.0,0.0,0.0,0.0,0.0,0.0,0.0,0.0,0.0,0.0,0.0,0.0,0.0,0.0,0.0,0.0,0.0,1.0300304,-0.0046503,1.0300371,-120.0043822,,,7e-07,149.4207732,6e-07,-37.8749837,,
CKT_4799_01085,173362743,12.0,0.0,0.0,0.0,0.0,0.0,0.0,0.0,0.0,0.0,0.0,0.0,0.0,0.0,0.0,0.0,0.0,0.0,0.0,,,1.0300258,-120.0131417,,,,,0.0,180.0,,
CKT_4799_01085,166677452,12.0,0.0,0.0,0.0,0.0,0.0,0.0,0.0,0.0,0.0,0.0,0.0,0.0,0.0,0.0,0.0,0.0,0.0,0.0,1.0300872,-0.0144053,1.0301084,-120.0135527,1.0300855,119.9855756,2e-07,80.475332,7.6e-06,-104.9218657,1.5e-05,103.3458839
CKT_4799_01085,-99999958787067,0.069284,0.0,0.0,0.0,0.0,0.0,0.0,0.0,0.0,0.0,0.0,0.0,0.0,0.0,0.0,0.0,0.0,0.0,0.0,1.7828887,-0.0281781,,,,,207.7520569,-20.9879503,,,,
CKT_4799_01085,-77777742786290,12.0,0.0,0.0,0.0,0.0,0.0,0.0,0.0,0.0,0.0,0.0,0.0,0.0,0.0,0.0,0.0,0.0,0.0,0.0,,,,,1.0300038,119.9848229,,,,,0.0,-79.2731717
CKT_4799_01085,-99999942760328,0.069284,0.0,0.0,0.0,0.0,0.0,0.0,0.0,0.0,0.0,0.0,0.0,0.0,0.0,0.0,0.0,0.0,0.0,0.0,1.7824706,-0.0354807,,,,,304.3762168,-22.8527429,,,,
CKT_4799_01085,58787922,12.0,0.0,0.0,0.0,0.0,0.0,0.0,0.0,0.0,0.0,0.0,0.0,0.0,0.0,0.0,0.0,0.0,0.0,0.0,,,1.029926,-120.0126958,,,,,0.0,-90.0,,
CKT_4799_01085,58787323,12.0,0.0,0.0,0.0,0.0,0.0,0.0,0.0,0.0,0.0,0.0,0.0,0.0,0.0,0.0,0.0,0.0,0.0,0.0,,,1.0299873,-120.0130712,,,,,0.0,-61.6203208,,
CKT_4799_01085,-99999942760656,0.069284,0.0,0.0,0.0,0.0,0.0,0.0,0.0,0.0,0.0,0.0,0.0,0.0,0.0,0.0,0.0,0.0,0.0,0.0,,,1.7829414,-120.029078,,,,,215.9758318,-142.7402189,,
CKT_4799_01085,173362477,12.0,0.0,0.0,0.0,0.0,0.0,0.0,0.0,0.0,0.0,0.0,0.0,0.0,0.0,0.0,0.0,0.0,0.0,0.0,1.0300831,-0.0148074,1.0301046,-120.0139784,1.0300834,119.9851866,0.0,-180.0,4e-07,90.0,1e-07,-0.0
CKT_4799_01085,42760656,12.0,0.0,0.0,0.0,0.0,0.0,0.0,0.0,0.0,0.0,0.0,0.0,0.0,0.0,0.0,0.0,0.0,0.0,0.0,,,1.0300272,-120.0150467,,,,,1e-07,-153.195416,,
CKT_4799_01085,296014584,12.0,0.0,0.0,0.0,0.0,0.0,0.0,0.0,0.0,0.0,0.0,0.0,0.0,0.0,0.0,0.0,0.0,0.0,0.0,1.0300304,-0.00465,1.0300371,-120.004382,1.0300299,119.9953457,0.0,135.0,0.0,-63.4349488,0.0,-71.5650511
CKT_4799_01085,70903954,12.0,0.0,0.0,0.0,0.0,0.0,0.0,0.0,0.0,0.0,0.0,0.0,0.0,0.0,0.0,0.0,0.0,0.0,0.0,1.0300848,-0.0149325,,,,,0.0,-35.7018033,,,,
CKT_4799_01085,58769891,12.0,0.0,0.0,0.0,0.0,0.0,0.0,0.0,0.0,0.0,0.0,0.0,0.0,0.0,0.0,0.0,0.0,0.0,0.0,1.0300279,-0.0144893,,,,,0.0,-153.3052055,,,,
CKT_4799_01085,42734292,12.0,0.0,0.0,0.0,0.0,0.0,0.0,0.0,0.0,0.0,0.0,0.0,0.0,0.0,0.0,0.0,0.0,0.0,0.0,,,,,1.0300724,119.9853035,,,,,0.0,-45.0
CKT_4799_01085,-77777758785025,12.0,0.0,0.0,0.0,0.0,0.0,0.0,0.0,0.0,0.0,0.0,0.0,0.0,0.0,0.0,0.0,0.0,0.0,0.0,,,,,,,,,,,,
CKT_4799_01085,264805107,12.0,0.0,0.0,0.0,0.0,0.0,0.0,0.0,0.0,0.0,0.0,0.0,0.0,0.0,0.0,0.0,0.0,0.0,0.0,1.0300304,-0.00465,1.0300371,-120.0043818,,,1.2e-06,-21.7372263,5e-07,-65.3644025,,
CKT_4799_01085,264805166,12.0,0.0,0.0,0.0,0.0,0.0,0.0,0.0,0.0,0.0,0.0,0.0,0.0,0.0,0.0,0.0,0.0,0.0,0.0,1.0300304,-0.00465,1.0300371,-120.0043818,,,1.1e-06,-10.8403282,1.9e-06,-83.6856592,,
CKT_4799_01085,-99999942736944,0.069284,0.0,0.0,0.0,0.0,0.0,0.0,0.0,0.0,0.0,0.0,0.0,0.0,0.0,0.0,0.0,0.0,0.0,0.0,1.7827901,-0.0314168,,,,,158.1098175,-22.6254868,,,,
CKT_4799_01085,304730107,12.0,0.0,0.0,0.0,0.0,0.0,0.0,0.0,0.0,0.0,0.0,0.0,0.0,0.0,0.0,0.0,0.0,0.0,0.0,,,1.0300371,-120.0043822,1.0300299,119.9953454,,,9e-07,-120.586129,3e-06,106.0486728
CKT_4799_01085,-77777742734552,12.0,0.0,0.0,0.0,0.0,0.0,0.0,0.0,0.0,0.0,0.0,0.0,0.0,0.0,0.0,0.0,0.0,0.0,0.0,,,,,1.0300196,119.9846527,,,,,0.0,109.3934653
CKT_4799_01085,58786702,12.0,0.0,0.0,0.0,0.0,0.0,0.0,0.0,0.0,0.0,0.0,0.0,0.0,0.0,0.0,0.0,0.0,0.0,0.0,1.0299801,-0.0138124,,,,,0.0,-90.0,,,,
CKT_4799_01085,287568034,12.0,0.0,0.0,0.0,0.0,0.0,0.0,0.0,0.0,0.0,0.0,0.0,0.0,0.0,0.0,0.0,0.0,0.0,0.0,1.0300304,-0.0046501,1.0300371,-120.0043819,,,5e-07,28.9521805,1e-06,-16.8964238,,
CKT_4799_01085,58758328,12.0,0.0,0.0,0.0,0.0,0.0,0.0,0.0,0.0,0.0,0.0,0.0,0.0,0.0,0.0,0.0,0.0,0.0,0.0,1.0299911,-0.0143426,,,,,0.0,-123.118714,,,,
CKT_4799_01085,58767915,12.0,0.0,0.0,0.0,0.0,0.0,0.0,0.0,0.0,0.0,0.0,0.0,0.0,0.0,0.0,0.0,0.0,0.0,0.0,,,,,1.0300505,119.9853169,,,,,0.0,-34.9718985
CKT_4799_01085,149251678,12.0,0.0,0.0,0.0,0.0,0.0,0.0,0.0,0.0,0.0,0.0,0.0,0.0,0.0,0.0,0.0,0.0,0.0,0.0,,,,,1.030002,119.9860504,,,,,0.0,-156.0375111
CKT_4799_01085,58786923,12.0,0.0,0.0,0.0,0.0,0.0,0.0,0.0,0.0,0.0,0.0,0.0,0.0,0.0,0.0,0.0,0.0,0.0,0.0,1.029965,-0.0136765,,,,,0.0,-163.4770981,,,,
CKT_4799_01085,42738044,12.0,0.0,0.0,0.0,0.0,0.0,0.0,0.0,0.0,0.0,0.0,0.0,0.0,0.0,0.0,0.0,0.0,0.0,0.0,1.0300041,-0.0158363,,,,,1e-07,168.8182793,,,,
CKT_4799_01085,42858733,12.0,0.0,0.0,0.0,0.0,0.0,0.0,0.0,0.0,0.0,0.0,0.0,0.0,0.0,0.0,0.0,0.0,0.0,0.0,,,1.0300838,-120.0137574,1.0300653,119.985379,,,0.0,90.0,0.0,-63.4349488
CKT_4799_01085,287568922,12.0,0.0,0.0,0.0,0.0,0.0,0.0,0.0,0.0,0.0,0.0,0.0,0.0,0.0,0.0,0.0,0.0,0.0,0.0,1.0300304,-0.0046503,1.0300371,-120.0043822,,,1.3e-06,-175.2363583,4e-07,90.0,,
CKT_4799_01085,304730539,12.0,0.0,0.0,0.0,0.0,0.0,0.0,0.0,0.0,0.0,0.0,0.0,0.0,0.0,0.0,0.0,0.0,0.0,0.0,,,1.0300371,-120.0043822,1.0300299,119.9953454,,,2.7e-06,-71.5650512,3.4e-06,93.5763344
CKT_4799_01085,42761345,12.0,0.0,0.0,0.0,0.0,0.0,0.0,0.0,0.0,0.0,0.0,0.0,0.0,0.0,0.0,0.0,0.0,0.0,0.0,,,1.0300269,-120.0150453,,,,,1e-07,14.0362435,,
CKT_4799_01085,42734117,12.0,0.0,0.0,0.0,0.0,0.0,0.0,0.0,0.0,0.0,0.0,0.0,0.0,0.0,0.0,0.0,0.0,0.0,0.0,1.029966,-0.0140081,,,,,0.0,174.2055942,,,,
CKT_4799_01085,287568682,12.0,0.0,0.0,0.0,0.0,0.0,0.0,0.0,0.0,0.0,0.0,0.0,0.0,0.0,0.0,0.0,0.0,0.0,0.0,1.0300304,-0.0046501,1.0300371,-120.0043819,,,1.1e-06,-36.8698976,1.3e-06,90.0,,
CKT_4799_01085,42735766,12.0,0.0,0.0,0.0,0.0,0.0,0.0,0.0,0.0,0.0,0.0,0.0,0.0,0.0,0.0,0.0,0.0,0.0,0.0,,,,,1.0298444,119.9864973,,,,,0.0,60.8923764
CKT_4799_01085,166677410,12.0,0.0,0.0,0.0,0.0,0.0,0.0,0.0,0.0,0.0,0.0,0.0,0.0,0.0,0.0,0.0,0.0,0.0,0.0,1.0300872,-0.0144005,1.0301084,-120.0135478,1.0300856,119.9855801,3e-07,-68.1985905,2e-07,4.7636417,1e-07,-90.0
CKT_4799_01085,173362391,12.0,0.0,0.0,0.0,0.0,0.0,0.0,0.0,0.0,0.0,0.0,0.0,0.0,0.0,0.0,0.0,0.0,0.0,0.0,1.0300842,-0.0148187,1.0301052,-120.0139843,1.0300839,119.9851807,2e-07,17.6254862,4e-07,6.4416001,3e-07,-125.433314
CKT_4799_01085,287568939,12.0,0.0,0.0,0.0,0.0,0.0,0.0,0.0,0.0,0.0,0.0,0.0,0.0,0.0,0.0,0.0,0.0,0.0,0.0,1.0300304,-0.0046503,1.0300371,-120.0043822,,,5e-07,-23.6293777,1.2e-06,-105.2551187,,
CKT_4799_01085,269096578,12.0,0.0,0.0,0.0,0.0,0.0,0.0,0.0,0.0,0.0,0.0,0.0,0.0,0.0,0.0,0.0,0.0,0.0,0.0,1.0300304,-0.0046501,1.0300371,-120.004382,1.0300299,119.9953457,0.0,-149.7435629,0.0,126.8698976,0.0,85.2363583
CKT_4799_01085,-99999958785312,0.069284,0.0,0.0,0.0,0.0,0.0,0.0,0.0,0.0,0.0,0.0,0.0,0.0,0.0,0.0,0.0,0.0,0.0,0.0,,,,,1.7818274,119.9599267,,,,,299.8308295,94.1214952
CKT_4799_01085,-77777758770469,12.0,0.0,0.0,0.0,0.0,0.0,0.0,0.0,0.0,0.0,0.0,0.0,0.0,0.0,0.0,0.0,0.0,0.0,0.0,1.0300073,-0.014458,,,,,0.0,-128.2958885,,,,
CKT_4799_01085,42711677,12.0,0.0,0.0,0.0,0.0,0.0,0.0,0.0,0.0,0.0,0.0,0.0,0.0,0.0,0.0,0.0,0.0,0.0,0.0,1.0300068,-0.0143172,,,,,0.0,73.549572,,,,
CKT_4799_01085,264805268,12.0,0.0,0.0,0.0,0.0,0.0,0.0,0.0,0.0,0.0,0.0,0.0,0.0,0.0,0.0,0.0,0.0,0.0,0.0,1.0300304,-0.00465,1.0300371,-120.0043818,,,5e-07,147.9946168,2e-07,26.5650512,,
CKT_4799_01085,42809012,12.0,0.0,0.0,0.0,0.0,0.0,0.0,0.0,0.0,0.0,0.0,0.0,0.0,0.0,0.0,0.0,0.0,0.0,0.0,1.0300145,-0.0157127,1.030035,-120.0149321,1.0300275,119.9843973,0.0,-85.9143832,0.0,-90.0,0.0,0.0
CKT_4799_01085,42760478,12.0,0.0,0.0,0.0,0.0,0.0,0.0,0.0,0.0,0.0,0.0,0.0,0.0,0.0,0.0,0.0,0.0,0.0,0.0,,,1.0300287,-120.0150179,,,,,0.0,-90.0,,
CKT_4799_01085,166677275,12.0,0.0,0.0,0.0,0.0,0.0,0.0,0.0,0.0,0.0,0.0,0.0,0.0,0.0,0.0,0.0,0.0,0.0,0.0,1.0300858,-0.0149385,1.0301066,-120.0140933,1.0300856,119.9850797,2e-07,180.0,5e-07,-36.8698976,0.0,-0.0
CKT_4799_01085,156967690,12.0,0.0,0.0,0.0,0.0,0.0,0.0,0.0,0.0,0.0,0.0,0.0,0.0,0.0,0.0,0.0,0.0,0.0,0.0,1.0300848,-0.0148253,1.0301055,-120.0139876,1.0300843,119.9851774,2e-07,26.5650512,2e-07,63.4349962,2e-07,150.2551187
CKT_4799_01085,42807866,12.0,0.0,0.0,0.0,0.0,0.0,0.0,0.0,0.0,0.0,0.0,0.0,0.0,0.0,0.0,0.0,0.0,0.0,0.0,,,,,1.0300719,119.985309,,,,,0.0,-82.8749836
CKT_4799_01085,58787075,12.0,0.0,0.0,0.0,0.0,0.0,0.0,0.0,0.0,0.0,0.0,0.0,0.0,0.0,0.0,0.0,0.0,0.0,0.0,1.0299657,-0.0136802,,,,,0.0,-12.9251833,,,,
CKT_4799_01085,42760819,12.0,0.0,0.0,0.0,0.0,0.0,0.0,0.0,0.0,0.0,0.0,0.0,0.0,0.0,0.0,0.0,0.0,0.0,0.0,1.0299986,-0.0159479,,,,,0.0,-155.8260987,,,,
CKT_4799_01085,42710997,12.0,0.0,0.0,0.0,0.0,0.0,0.0,0.0,0.0,0.0,0.0,0.0,0.0,0.0,0.0,0.0,0.0,0.0,0.0,,,1.0300258,-120.0131413,,,,,0.0,129.7358334,,
CKT_4799_01085,-99999958787231,0.069284,0.0,0.0,0.0,0.0,0.0,0.0,0.0,0.0,0.0,0.0,0.0,0.0,0.0,0.0,0.0,0.0,0.0,0.0,,,1.7826377,-120.0306339,,,,,179.4949652,-142.7872194,,
...